*SPEF "IEEE 1481-1998"
*DESIGN "booth"
*DATE "Tue Jun 23 10:01:08 2026"
*VENDOR "Cadence Design Systems, Inc."
*PROGRAM "Innovus"
*VERSION "21.15-s110_1"
*DESIGN_FLOW "PIN_CAP NONE" "NAME_SCOPE LOCAL"
*DIVIDER /
*DELIMITER :
*BUS_DELIMITER []
*T_UNIT 1 NS
*C_UNIT 1 PF
*R_UNIT 1 OHM
*L_UNIT 1 HENRY

// MMMC spef file for corner 'rc_corner'

*NAME_MAP

*1 FE_RN_2
*2 FE_RN_58_0
*3 FE_OCPN13_P_0
*4 FE_RN_57_0
*5 FE_OCPN12_Count_0
*6 FE_RN_56_0
*7 FE_RN_55_0
*8 FE_OCPN6_n_229
*9 FE_RN_54_0
*10 FE_RN_53_0
*11 FE_RN_52_0
*12 FE_OCPN5_n
*13 FE_OCPN11_n_404
*14 FE_OCPN10_P_5
*15 FE_RN_51_0
*16 FE_RN_50_0
*17 FE_RN_49_0
*18 FE_RN_48_0
*19 FE_RN_47_0
*20 FE_RN_45_0
*21 FE_RN_44_0
*22 FE_RN_43_0
*23 FE_RN_42_0
*24 FE_RN_41_0
*25 FE_RN_39_0
*26 FE_RN_38_0
*27 FE_RN_36_0
*28 FE_RN_35_0
*29 FE_OCPN4_P_4
*30 FE_RN_31_0
*31 FE_OCPN3_P_5
*32 FE_OCPN2_P_5
*33 FE_RN_30_0
*34 FE_RN_29_0
*35 FE_RN_28_0
*36 FE_RN_27_0
*37 FE_RN_25_0
*38 FE_RN_24_0
*39 FE_RN_22_0
*40 FE_RN_21_0
*41 FE_RN_20_0
*42 FE_RN_19_0
*43 FE_RN_16_0
*44 FE_OCPN1_P_6
*45 FE_RN_15_0
*46 FE_RN_14_0
*47 FE_RN_13_0
*48 FE_RN_12_0
*49 FE_RN_8_0
*50 FE_RN_7_0
*51 FE_RN_6_0
*52 FE_RN_5_0
*53 FE_RN_4_0
*54 FE_RN_3_0
*55 FE_RN_1
*56 FE_OCPN0_n_255
*57 FE_RN_2_0
*58 FE_RN_1_0
*59 FE_DBTN1_load
*60 FE_DBTN0_reset
*61 clk
*62 load
*63 reset
*64 M[3]
*65 M[2]
*66 M[1]
*67 M[0]
*68 Q[3]
*69 Q[2]
*70 Q[1]
*71 Q[0]
*72 P[6]
*73 P[5]
*74 P[4]
*75 P[3]
*76 P[2]
*77 P[1]
*78 P[0]
*79 Count[2]
*80 Count[1]
*81 Count[0]
*82 M_temp[3]
*83 M_temp[2]
*84 M_temp[1]
*85 M_temp[0]
*86 Q_minus_one
*87 n_1
*88 n_3
*89 n_4
*90 n_5
*91 n_6
*92 n_8
*93 n_9
*94 n_10
*95 n_14
*96 n_20
*97 n_21
*98 n_22
*99 n_26
*100 n_27
*101 n_28
*102 n_30
*103 n_34
*104 n_36
*105 n_37
*106 n_39
*107 n_40
*108 n_41
*109 n_42
*110 n_44
*111 n_50
*112 n_51
*113 n_52
*114 n_53
*115 n_56
*116 n_58
*117 n_59
*118 n_60
*119 n_68
*120 n_69
*121 n_70
*122 n_75
*123 n_76
*124 n_79
*125 n_85
*126 n_86
*127 n_90
*128 n_92
*129 n_96
*130 n_124
*131 n_192
*132 n_193
*133 n_194
*134 n_199
*135 n_200
*136 n_214
*137 n_227
*138 n_229
*139 n_231
*140 n_232
*141 n_235
*142 n_236
*143 n_237
*144 n_238
*145 n_239
*146 n_241
*147 n_242
*148 n_243
*149 n_245
*150 n_246
*151 n_247
*152 n_255
*153 n_257
*154 n_262
*155 n_275
*156 n_276
*157 n_278
*158 n_307
*159 n_308
*160 n_309
*161 n_311
*162 n_313
*163 n_314
*164 n_316
*165 n_317
*166 n_318
*167 n_322
*168 n_323
*169 n_326
*170 n_327
*171 n_328
*172 n_329
*173 n_331
*174 n_332
*175 n_333
*176 n_334
*177 n_335
*178 n_336
*179 n_337
*180 n_338
*181 n_352
*182 n_355
*183 n_356
*184 n_358
*185 n_359
*186 n_388
*187 n_390
*188 n_391
*189 n_392
*190 n_393
*191 n_403
*192 n_404
*193 n_405
*194 n_407
*195 n_446
*196 P[7]
*197 g10467__4733_dup
*198 FE_RC_104_0
*199 FE_RC_103_0
*200 FE_RC_102_0
*201 FE_OCPC13_P_0
*202 FE_RC_101_0
*203 FE_RC_100_0
*204 FE_OCPC12_Count_0
*205 FE_RC_99_0
*206 FE_RC_98_0
*207 FE_RC_97_0
*208 FE_OCPC11_n_229
*209 FE_RC_96_0
*210 FE_RC_95_0
*211 FE_RC_94_0
*212 FE_RC_93_0
*213 FE_RC_92_0
*214 FE_OCPC10_temp_2
*215 FE_OCPC11_n_404
*216 FE_OCPC10_P_5
*217 FE_RC_91_0
*218 FE_RC_90_0
*219 FE_RC_89_0
*220 FE_RC_88_0
*221 FE_RC_87_0
*222 FE_RC_86_0
*223 FE_RC_85_0
*224 FE_RC_84_0
*225 FE_RC_83_0
*226 FE_RC_82_0
*227 FE_RC_79_0
*228 FE_RC_78_0
*229 FE_RC_77_0
*230 FE_RC_76_0
*231 FE_RC_75_0
*232 FE_RC_74_0
*233 FE_RC_73_0
*234 FE_RC_72_0
*235 FE_RC_70_0
*236 FE_RC_68_0
*237 FE_RC_67_0
*238 FE_RC_66_0
*239 FE_RC_63_0
*240 FE_RC_62_0
*241 FE_RC_60_0
*242 FE_OCPC9_P_4
*243 FE_OCPC8_P_4
*244 FE_RC_54_0
*245 FE_OCPC7_P_5
*246 FE_OCPC6_P_5
*247 FE_OCPC5_P_5
*248 FE_RC_50_0
*249 FE_RC_49_0
*250 FE_RC_48_0
*251 FE_RC_47_0
*252 FE_RC_46_0
*253 FE_RC_45_0
*254 FE_RC_41_0
*255 FE_RC_39_0
*256 FE_RC_38_0
*257 FE_RC_33_0
*258 FE_RC_32_0
*259 FE_RC_30_0
*260 FE_RC_28_0
*261 FE_RC_27_0
*262 FE_RC_26_0
*263 FE_RC_25_0
*264 FE_RC_24_0
*265 FE_RC_21_0
*266 FE_RC_16_0
*267 FE_RC_15_0
*268 FE_RC_14_0
*269 FE_RC_11_0
*270 FE_RC_9_0
*271 FE_RC_7_0
*272 FE_RC_6_0
*273 g2_dup
*274 FE_OCPC3_n_255
*275 FE_RC_2_0
*276 FE_OFC2_Q_minus_one
*277 FE_OFC1_P_0
*278 FE_OFC0_n_255
*279 FE_DBTC1_load
*280 FE_DBTC0_reset
*281 A_reg\[2\]
*282 A_reg\[1\]
*283 A_reg\[0\]
*284 P_reg\[1\]
*285 P_reg\[2\]
*286 P_reg\[3\]
*287 Count_reg\[1\]
*288 P_reg\[0\]
*289 g10379__7098
*290 g10383__5115
*291 g10382__7482
*292 Count_reg\[0\]
*293 Q_minus_one_reg
*294 g10384__9945
*295 g10405__6417
*296 g10421__4319
*297 g10420__8428
*298 g10424__6783
*299 g10435__2802
*300 g10434__1705
*301 M_temp_reg\[3\]
*302 M_temp_reg\[2\]
*303 M_temp_reg\[0\]
*304 M_temp_reg\[1\]
*305 g10415__5115
*306 g10413
*307 Count_reg\[2\]
*308 g10436__4733
*309 g10432__6161
*310 g10437__2883
*311 g10442__6417
*312 g10441__5477
*313 g10440__2398
*314 g10443__5107
*315 g10449
*316 g10450__5122
*317 g10454__6131
*318 g10468__7482
*319 g10467__4733
*320 g10465__9315
*321 g10456__2883
*322 g10458__7410
*323 g10460__5477
*324 g10461__2398
*325 g10481
*326 g10480
*327 g10478
*328 g10477
*329 g10479
*330 g10483
*331 fopt10502
*332 g124
*333 g126
*334 g131
*335 g529
*336 g535
*337 g548
*338 g537
*339 g536
*340 g541
*341 g545
*342 g533
*343 g547
*344 g544
*345 g10570
*346 g133
*347 g10572
*348 g48
*349 g191
*350 g154
*351 g156
*352 g155
*353 g157
*354 g18
*355 g19
*356 g24
*357 g25
*358 g26
*359 g119
*360 g118
*361 g10589
*362 g10448__10592
*363 g10447__10593
*364 g546_dup
*365 g10446__10594
*366 g10399__10595
*367 g10445__10596
*368 g35
*369 fopt10604
*370 g10387__10606
*371 g10417__10608
*372 g10451__10610
*373 g10633
*374 g10637
*375 fopt10638
*376 g10642
*377 g10643
*378 g10644
*379 g10645
*380 g10419__10514_dup10674


*PORTS

*61 I *C 23.345 52.78
*62 I *C 28.855 52.78
*63 I *C 53.94 29.725
*64 I *C 0 16.965
*65 I *C 0 22.185
*66 I *C 0 32.625
*67 I *C 0 27.405
*68 I *C 41.905 52.78
*69 I *C 53.94 37.845
*70 I *C 29.725 52.78
*71 I *C 30.305 52.78
*196 O *C 18.125 0
*72 O *C 18.705 0
*73 O *C 32.915 0
*74 O *C 53.94 25.375
*75 O *C 39.005 52.78
*76 O *C 30.015 52.78
*77 O *C 29.145 52.78
*78 O *C 53.94 30.305


*D_NET *1 0.000755279

*CONN
*I *209:A I *C 31.755 11.745 *L 0.00273 *D CLKINVX1
*I *213:B I *C 34.945 12.035 *L 0.00272 *D NOR3BX1
*I *197:Y O *C 34.075 8.845 *L 0 *D NOR2X2

*CAP
1 *1:1 4.46872e-05
2 *1:2 4.46872e-05
3 *1:3 0.000169099
4 *1:4 0.000169099
5 *1:5 2.97915e-05
6 *1:6 0.000163853
7 *1:7 0.000134062

*RES
1 *1:7 *197:Y 1.4
2 *1:6 *213:B 1.4
3 *1:6 *1:7 1.11856
4 *1:5 *1:6 0.248569
5 *1:4 *1:5 1.4
6 *1:3 *1:4 1.36711
7 *1:2 *1:3 1.4
8 *1:1 *1:2 0.372853
9 *209:A *1:1 1.4
*END

*D_NET *2 0.000902329

*CONN
*I *200:B0 I *C 33.205 22.185 *L 0.00277 *D AOI31X1
*I *199:Y O *C 35.8975 16.965 *L 0 *D CLKINVX1

*CAP
1 *2:0 5.9583e-05
2 *2:1 0.000138354
3 *2:2 5.9583e-05
4 *2:3 0.000138354
5 *2:5 4.46872e-05
6 *2:6 5.9583e-05
7 *2:7 0.000148957
8 *2:8 0.000148957
9 *2:9 5.9583e-05
10 *2:10 4.46872e-05

*RES
1 *2:10 *199:Y 1.4
2 *2:9 *2:10 0.372853
3 *2:8 *2:9 0.124284
4 *2:7 *2:8 1.11856
5 *2:6 *2:7 0.124284
6 *2:5 *2:6 0.372853
7 *2:3 *2:5 1.4
8 *2:2 *200:B0 1.4
9 *2:1 *2:3 1.11855
10 *2:0 *2:2 0.497138
11 *2:0 *2:1 1.4
*END

*D_NET *3 0.000509846

*CONN
*I *372:B0 I *C 31.465 27.405 *L 0.00159 *D AOI22XL
*I *371:A I *C 34.655 27.405 *L 0.00547 *D NAND2X2
*I *201:Y O *C 35.815 27.405 *L 0 *D BUFX2

*CAP
1 *3:2 0.00016495
2 *3:4 0.00016495
3 *371:A 1.49955e-05
4 *3:8 4.49864e-05
5 *3:9 4.49864e-05
6 *3:10 4.49864e-05
7 *201:Y 2.99909e-05

*RES
1 *3:10 *201:Y 0.248566
2 *3:9 *3:10 0.124283
3 *3:8 *3:9 0.248566
4 *371:A *3:8 0.124283
5 *3:5 *3:7 0.220714
6 *3:5 *371:A 1.4
7 *3:4 *3:5 1.4
8 *3:2 *3:4 1.36711
9 *3:1 *372:B0 1.4
10 *3:1 *3:2 1.4
11 *3:0 *3:1 0.220714
*END

*D_NET *4 0.000235182

*CONN
*I *203:AN I *C 28.275 38.425 *L 0.00173 *D NOR2BX2
*I *202:Y O *C 28.855 40.455 *L 0 *D NOR2X4

*CAP
1 *4:1 8.75999e-05
2 *4:2 8.75999e-05
3 *4:3 2.99909e-05
4 *202:Y 2.99909e-05

*RES
1 *4:3 *202:Y 0.248566
2 *4:2 *4:3 1.4
3 *4:1 *4:2 0.745706
4 *203:AN *4:1 1.4
*END

*D_NET *5 0.00105203

*CONN
*I *204:Y O *C 18.415 41.035 *L 0 *D CLKBUFX2
*I *292:S0 I *C 26.825 43.065 *L 0.00484 *D MDFFHQX4

*CAP
1 *5:1 7.11738e-05
2 *5:2 7.11738e-05
3 *5:3 0.000425641
4 *5:4 0.000425641
5 *5:5 2.92e-05
6 *5:6 2.92e-05

*RES
1 *5:6 *292:S0 1.4
2 *5:5 *5:6 0.248569
3 *5:4 *5:5 1.4
4 *5:3 *5:4 3.7285
5 *5:2 *5:3 1.4
6 *5:1 *5:2 0.621441
7 *204:Y *5:1 1.4
*END

*D_NET *6 0.000470363

*CONN
*I *206:Y O *C 40.2475 37.845 *L 0 *D CLKINVX1
*I *207:B0 I *C 41.615 41.035 *L 0.00265 *D AOI22X1

*CAP
1 *206:Y 5.99819e-05
2 *6:1 5.99819e-05
3 *6:2 7.29999e-05
4 *6:3 8.75999e-05
5 *6:4 0.0001022
6 *6:5 8.75999e-05

*RES
1 *6:5 *207:B0 1.4
2 *6:4 *6:5 0.745706
3 *6:3 *6:4 0.124284
4 *6:2 *6:3 0.621422
5 *6:1 *6:2 1.4
6 *206:Y *6:1 0.497133
*END

*D_NET *7 0.0003504

*CONN
*I *207:B1 I *C 41.325 41.035 *L 0.00283 *D AOI22X1
*I *205:Y O *C 43.065 40.455 *L 0 *D NOR2XL

*CAP
1 *7:1 2.92e-05
2 *7:2 0.0001168
3 *7:3 0.000146
4 *7:4 5.83999e-05

*RES
1 *7:4 *205:Y 1.4
2 *7:3 *7:4 0.497137
3 *7:2 *7:3 0.745706
4 *7:1 *7:2 0.248569
5 *207:B1 *7:1 1.4
*END

*D_NET *8 0.000349046

*CONN
*I *208:Y O *C 24.215 37.555 *L 0 *D CLKBUFX3
*I *203:B I *C 27.695 38.135 *L 0.00538 *D NOR2BX2

*CAP
1 *8:3 0.000159923
2 *8:4 0.000159923
3 *8:5 1.46e-05
4 *8:6 1.46e-05

*RES
1 *8:6 *203:B 1.4
2 *8:6 *8:7 0.212143
3 *8:5 *8:6 0.124284
4 *8:4 *8:5 1.4
5 *8:3 *8:4 1.36712
6 *8:1 *8:3 1.4
7 *8:1 *208:Y 1.4
8 *8:0 *8:1 0.220714
*END

*D_NET *9 0.00178059

*CONN
*I *213:AN I *C 35.525 11.745 *L 0.0018 *D NOR3BX1
*I *212:Y O *C 42.5675 22.185 *L 0 *D CLKINVX1

*CAP
1 *9:1 2.97915e-05
2 *9:2 2.97915e-05
3 *9:3 9.22359e-05
4 *9:4 9.22359e-05
5 *9:5 0.000357498
6 *9:6 0.000357498
7 *9:7 0.000276708
8 *9:8 0.000276708
9 *9:9 0.000134062
10 *9:10 0.000134062

*RES
1 *9:10 *212:Y 1.4
2 *9:9 *9:10 1.11856
3 *9:8 *9:9 1.4
4 *9:7 *9:8 2.2371
5 *9:6 *9:7 1.4
6 *9:5 *9:6 2.98283
7 *9:4 *9:5 1.4
8 *9:3 *9:4 0.745699
9 *9:2 *9:3 1.4
10 *9:1 *9:2 0.248569
11 *213:AN *9:1 1.4
*END

*D_NET *10 0.00083192

*CONN
*I *210:Y O *C 24.8775 9.715 *L 0 *D CLKINVX1
*I *211:B I *C 29.725 9.425 *L 0.00534 *D NAND2X2

*CAP
1 *10:0 8.46685e-05
2 *10:1 8.46685e-05
3 *10:2 0.000195322
4 *10:4 0.000195322
5 *10:5 7.44787e-05
6 *10:6 7.44787e-05
7 *10:7 6.14906e-05
8 *211:B 6.14906e-05

*RES
1 *10:7 *211:B 0.497132
2 *10:6 *10:7 1.4
3 *10:5 *10:6 0.621422
4 *10:4 *10:5 1.4
5 *10:2 *10:4 1.61568
6 *10:1 *210:Y 1.4
7 *10:0 *10:2 1.4
8 *10:0 *10:1 0.745723
*END

*D_NET *11 0.000515993

*CONN
*I *211:A I *C 29.145 9.715 *L 0.00547 *D NAND2X2
*I *209:Y O *C 32.1275 11.745 *L 0 *D CLKINVX1

*CAP
1 *11:2 0.000153726
2 *11:4 0.000153726
3 *11:5 0.00010427
4 *11:6 0.00010427

*RES
1 *11:6 *209:Y 1.4
2 *11:5 *11:6 0.869991
3 *11:4 *11:5 1.4
4 *11:2 *11:4 1.24283
5 *11:1 *211:A 1.4
6 *11:1 *11:2 1.4
7 *11:0 *11:1 0.220714
*END

*D_NET *12 0.00201561

*CONN
*I *214:Y O *C 9.425 25.665 *L 0 *D CLKBUFX3
*I *367:A I *C 12.905 22.475 *L 0.00157 *D NAND2XL
*I *260:B I *C 16.095 21.895 *L 0.00284 *D NAND2X1
*I *229:A I *C 10.295 14.935 *L 0.00521 *D INVX2

*CAP
1 *12:3 4.31031e-05
2 *12:4 0.000172412
3 *12:5 0.000287354
4 *12:6 0.000465677
5 *12:7 0.000158045
6 *12:8 9.87799e-05
7 *12:9 0.000465677
8 *12:10 0.000112891
9 *12:11 9.87799e-05
10 *12:13 0.000112891

*RES
1 *12:16 *229:A 1.4
2 *12:16 *12:18 0.220714
3 *12:13 *260:B 1.4
4 *12:12 *12:16 1.4
5 *12:12 *12:15 0.220714
6 *12:11 *367:A 1.4
7 *12:10 *12:13 0.994298
8 *12:9 *12:12 1.4
9 *12:8 *12:11 0.870011
10 *12:7 *12:10 1.4
11 *12:6 *12:9 4.10148
12 *12:5 *12:8 1.4
13 *12:5 *12:7 1.36712
14 *12:4 *12:6 1.4
15 *12:4 *12:5 1.11855
16 *12:3 *12:4 0.37285
17 *12:1 *12:3 1.4
18 *12:1 *214:Y 1.4
19 *12:0 *12:1 0.220714
*END

*D_NET *13 0.000819175

*CONN
*I *377:A1 I *C 14.935 35.525 *L 0.00278 *D OAI211X1
*I *215:Y O *C 21.025 37.845 *L 0 *D CLKBUFX2

*CAP
1 *13:1 5.69391e-05
2 *13:2 5.69391e-05
3 *13:3 0.000295709
4 *13:4 0.000295709
5 *13:5 5.69391e-05
6 *13:6 5.69391e-05

*RES
1 *13:6 *215:Y 1.4
2 *13:5 *13:6 0.497153
3 *13:4 *13:5 1.4
4 *13:3 *13:4 2.60995
5 *13:2 *13:3 1.4
6 *13:1 *13:2 0.497153
7 *377:A1 *13:1 1.4
*END

*D_NET *14 0.000623628

*CONN
*I *216:Y O *C 23.055 30.595 *L 0 *D CLKBUFX2
*I *359:B I *C 26.245 27.115 *L 0.00285 *D NAND3X1

*CAP
1 *14:0 0.000113878
2 *14:1 0.000113878
3 *14:2 0.000140814
4 *14:4 0.000140814
5 *14:5 4.27043e-05
6 *14:6 5.71217e-05
7 *14:7 1.44174e-05

*RES
1 *14:7 *359:B 1.4
2 *14:6 *14:7 0.124286
3 *14:5 *14:6 0.372864
4 *14:4 *14:5 1.4
5 *14:2 *14:4 1.24283
6 *14:1 *216:Y 1.4
7 *14:0 *14:2 1.4
8 *14:0 *14:1 0.994305
*END

*D_NET *15 0.00421727

*CONN
*I *219:A I *C 34.075 37.845 *L 0.00273 *D CLKINVX1
*I *218:Y O *C 37.555 8.845 *L 0 *D NAND3X6

*CAP
1 *15:0 2.92e-05
2 *15:1 0.000599819
3 *15:2 2.92e-05
4 *15:3 0.000599819
5 *15:5 0.000569547
6 *15:6 0.000584443
7 *15:7 0.000223436
8 *15:8 0.000223436
9 *15:9 0.000357498
10 *15:10 0.000357498
11 *15:11 0.000283019
12 *15:12 0.000268123
13 *15:13 4.61179e-05
14 *218:Y 4.61179e-05

*RES
1 *15:13 *218:Y 0.372849
2 *15:12 *15:13 1.4
3 *15:11 *15:12 2.23712
4 *15:10 *15:11 0.124284
5 *15:9 *15:10 2.85854
6 *15:8 *15:9 0.124284
7 *15:7 *15:8 1.73998
8 *15:6 *15:7 0.124284
9 *15:5 *15:6 4.84709
10 *15:3 *15:5 1.4
11 *15:2 *219:A 1.4
12 *15:1 *15:3 4.97133
13 *15:0 *15:2 0.248569
14 *15:0 *15:1 1.4
*END

*D_NET *16 0.0005635

*CONN
*I *220:A I *C 31.175 37.845 *L 0.00263 *D NOR2X1
*I *219:Y O *C 34.4475 37.845 *L 0 *D CLKINVX1

*CAP
1 *16:1 5.83999e-05
2 *16:2 5.83999e-05
3 *16:3 0.00016495
4 *16:4 0.00016495
5 *16:5 5.83999e-05
6 *16:6 5.83999e-05

*RES
1 *16:6 *219:Y 1.4
2 *16:5 *16:6 0.497137
3 *16:4 *16:5 1.4
4 *16:3 *16:4 1.36711
5 *16:2 *16:3 1.4
6 *16:1 *16:2 0.497137
7 *220:A *16:1 1.4
*END

*D_NET *17 0.000255543

*CONN
*I *223:C0 I *C 21.315 14.645 *L 0.00531 *D OAI211X2
*I *222:Y O *C 21.315 17.545 *L 0 *D NAND2X2

*CAP
1 *223:C0 2.87354e-05
2 *17:1 2.87354e-05
3 *17:2 8.46685e-05
4 *17:3 8.46685e-05
5 *17:4 1.43677e-05
6 *222:Y 1.43677e-05

*RES
1 *17:4 *222:Y 0.124283
2 *17:3 *17:4 1.4
3 *17:2 *17:3 0.745723
4 *17:1 *17:2 1.4
5 *223:C0 *17:1 0.248567
*END

*D_NET *18 0.000447826

*CONN
*I *224:Y O *C 25.375 11.455 *L 0 *D AOI22X2
*I *225:A1 I *C 27.115 14.355 *L 0.00533 *D OAI21X2

*CAP
1 *18:0 1.53726e-05
2 *224:Y 1.53726e-05
3 *18:2 7.44787e-05
4 *18:3 0.000119166
5 *18:4 0.000134062
6 *18:5 8.93744e-05

*RES
1 *18:5 *225:A1 1.4
2 *18:4 *18:5 0.745707
3 *18:3 *18:4 0.372853
4 *18:2 *18:3 0.621422
5 *18:0 *18:2 1.4
6 *18:0 *224:Y 0.124283
*END

*D_NET *19 0.000417081

*CONN
*I *227:C I *C 27.695 20.155 *L 0.00285 *D NAND3X1
*I *221:Y O *C 28.565 17.545 *L 0 *D NAND2X1

*CAP
1 *19:1 2.97915e-05
2 *19:2 4.46872e-05
3 *19:3 4.46872e-05
4 *19:4 0.000119166
5 *19:5 0.00010427
6 *19:6 4.46872e-05
7 *19:7 2.97915e-05

*RES
1 *19:7 *221:Y 1.4
2 *19:6 *19:7 0.248569
3 *19:5 *19:6 0.124284
4 *19:4 *19:5 0.745707
5 *19:3 *19:4 0.248569
6 *19:2 *19:3 0.124284
7 *19:1 *19:2 0.248569
8 *227:C *19:1 1.4
*END

*D_NET *20 0.00097908

*CONN
*I *227:B I *C 27.405 20.445 *L 0.00285 *D NAND3X1
*I *226:Y O *C 34.4475 20.155 *L 0 *D CLKINVX1

*CAP
1 *20:0 4.61179e-05
2 *20:1 4.61179e-05
3 *20:2 1.53726e-05
4 *20:3 0.000245962
5 *20:4 2.97915e-05
6 *20:5 0.000245962
7 *20:6 2.97915e-05
8 *20:7 0.000122981
9 *20:9 0.000107609
10 *20:10 4.46872e-05
11 *20:11 4.46872e-05

*RES
1 *20:11 *226:Y 1.4
2 *20:10 *20:11 0.372853
3 *20:9 *20:10 1.4
4 *20:7 *20:9 0.869982
5 *20:6 *227:B 1.4
6 *20:5 *20:7 0.124283
7 *20:4 *20:6 0.248569
8 *20:3 *20:5 1.86425
9 *20:2 *20:4 1.4
10 *20:1 *20:3 0.124283
11 *20:0 *20:2 0.124283
12 *20:0 *20:1 0.248566
*END

*D_NET *21 0.000536746

*CONN
*I *233:B0 I *C 15.805 25.085 *L 0.0105 *D OAI21X4
*I *232:Y O *C 15.515 19.575 *L 0 *D NAND2X2

*CAP
1 *21:1 2.82228e-05
2 *21:2 0.00019756
3 *21:3 0.000183448
4 *21:4 5.64457e-05
5 *21:5 4.23343e-05
6 *21:6 1.43677e-05
7 *232:Y 1.43677e-05

*RES
1 *21:6 *232:Y 0.124283
2 *21:5 *21:6 1.4
3 *21:4 *21:5 0.372862
4 *21:3 *21:4 0.124287
5 *21:2 *21:3 1.49145
6 *21:1 *21:2 0.248574
7 *233:B0 *21:1 1.4
*END

*D_NET *22 0.00037356

*CONN
*I *230:Y O *C 9.7975 22.185 *L 0 *D CLKINVX1
*I *231:A I *C 13.485 22.185 *L 0.00263 *D NOR2X1

*CAP
1 *22:3 0.00018678
2 *22:4 0.00018678

*RES
1 *22:5 *231:A 1.4
2 *22:5 *22:6 0.220714
3 *22:4 *22:5 1.4
4 *22:3 *22:4 1.61568
5 *22:1 *22:3 1.4
6 *22:1 *230:Y 1.4
7 *22:0 *22:1 0.220714
*END

*D_NET *23 0.00157491

*CONN
*I *228:Y O *C 35.235 25.375 *L 0 *D AOI21X1
*I *235:A I *C 41.905 16.965 *L 0.00267 *D NAND2X1

*CAP
1 *228:Y 3.07453e-05
2 *23:1 9.22359e-05
3 *23:2 9.22359e-05
4 *23:3 3.07453e-05
5 *23:4 0.000268123
6 *23:5 0.000268123
7 *23:6 0.00029208
8 *23:7 0.00029208
9 *23:8 0.00010427
10 *23:9 0.00010427

*RES
1 *23:9 *235:A 1.4
2 *23:8 *23:9 0.869991
3 *23:7 *23:8 1.4
4 *23:6 *23:7 2.36138
5 *23:5 *23:6 1.4
6 *23:4 *23:5 2.23712
7 *23:3 *23:4 1.4
8 *23:2 *23:3 0.248566
9 *23:1 *23:2 0.497132
10 *228:Y *23:1 0.248566
*END

*D_NET *24 0.00138853

*CONN
*I *228:B0 I *C 34.655 25.085 *L 0.00277 *D AOI21X1
*I *234:Y O *C 39.875 17.545 *L 0 *D NAND2X2

*CAP
1 *24:1 2.97915e-05
2 *24:2 2.97915e-05
3 *24:3 0.000215217
4 *24:4 0.00023059
5 *24:5 7.68632e-05
6 *24:6 6.14906e-05
7 *24:7 0.000372394
8 *24:8 0.000372394

*RES
1 *24:8 *234:Y 1.4
2 *24:7 *24:8 3.10711
3 *24:6 *24:7 1.4
4 *24:5 *24:6 0.497132
5 *24:4 *24:5 0.124283
6 *24:3 *24:4 1.73996
7 *24:2 *24:3 1.4
8 *24:1 *24:2 0.248569
9 *228:B0 *24:1 1.4
*END

*D_NET *25 0.00117714

*CONN
*I *224:A0 I *C 24.215 11.745 *L 0.0054 *D AOI22X2
*I *238:Y O *C 33.205 11.165 *L 0 *D NOR2X1

*CAP
1 *25:1 2.82228e-05
2 *25:2 2.82228e-05
3 *25:3 0.000131822
4 *25:4 0.000147194
5 *25:5 0.000245962
6 *25:6 0.000245962
7 *25:7 9.22359e-05
8 *25:8 9.22359e-05
9 *25:9 1.53726e-05
10 *25:10 2.97915e-05
11 *25:11 5.9583e-05
12 *25:12 2.97915e-05
13 *25:13 1.53726e-05
14 *238:Y 1.53726e-05

*RES
1 *25:13 *238:Y 0.124283
2 *25:12 *25:13 1.4
3 *25:11 *25:12 0.248569
4 *25:10 *25:11 0.248569
5 *25:9 *25:10 1.4
6 *25:8 *25:9 0.124283
7 *25:7 *25:8 0.621415
8 *25:6 *25:7 0.124283
9 *25:5 *25:6 1.86425
10 *25:4 *25:5 0.124283
11 *25:3 *25:4 1.11855
12 *25:2 *25:3 1.4
13 *25:1 *25:2 0.248574
14 *224:A0 *25:1 1.4
*END

*D_NET *26 0.000491925

*CONN
*I *225:A0 I *C 27.985 14.645 *L 0.00562 *D OAI21X2
*I *241:Y O *C 32.4175 14.935 *L 0 *D CLKINVX1

*CAP
1 *26:2 0.000122981
2 *26:4 0.000138354
3 *26:5 0.000122981
4 *26:6 0.000107609

*RES
1 *26:7 *26:9 0.220714
2 *26:7 *241:Y 1.4
3 *26:6 *26:7 1.4
4 *26:5 *26:6 0.869982
5 *26:4 *26:5 0.124283
6 *26:2 *26:4 0.994265
7 *26:1 *225:A0 1.4
8 *26:1 *26:2 1.4
9 *26:0 *26:1 0.03
*END

*D_NET *27 0.00159875

*CONN
*I *224:B1 I *C 26.245 12.035 *L 0.0053 *D AOI22X2
*I *240:Y O *C 40.745 11.455 *L 0 *D CLKINVX2

*CAP
1 *27:2 0.000661024
2 *27:3 6.14906e-05
3 *27:4 0.000691769
4 *224:B1 6.14906e-05
5 *27:6 7.68632e-05
6 *27:7 4.61179e-05

*RES
1 *27:8 *27:10 0.220714
2 *27:8 *240:Y 1.4
3 *27:7 *27:8 1.4
4 *27:6 *27:7 0.372849
5 *27:4 *27:6 0.248566
6 *27:3 *224:B1 0.497132
7 *27:2 *27:4 5.34417
8 *27:1 *27:3 1.4
9 *27:1 *27:2 1.4
10 *27:0 *27:1 0.220714
*END

*D_NET *28 0.000378585

*CONN
*I *239:Y O *C 23.1375 11.745 *L 0 *D CLKINVX1
*I *224:B0 I *C 26.825 11.745 *L 0.00549 *D AOI22X2

*CAP
1 *28:2 2.87354e-05
2 *28:3 0.000160557
3 *239:Y 2.87354e-05
4 *28:5 0.000160557

*RES
1 *28:6 *224:B0 1.4
2 *28:6 *28:7 0.220714
3 *28:5 *28:6 1.4
4 *28:3 *28:5 1.36712
5 *28:2 *239:Y 0.248567
6 *28:1 *28:3 1.4
7 *28:1 *28:2 1.4
8 *28:0 *28:1 0.220714
*END

*D_NET *29 0.00190071

*CONN
*I *242:A I *C 38.135 22.185 *L 0.00283 *D BUFX3
*I *243:A I *C 38.715 25.375 *L 0.00521 *D CLKINVX2
*I *283:Q O *C 36.975 20.155 *L 0 *D DFFHQX4
*I *323:A I *C 44.805 14.935 *L 0.0111 *D NAND2X4

*CAP
1 *29:1 2.97915e-05
2 *29:2 6.14906e-05
3 *29:3 5.9583e-05
4 *29:5 6.14906e-05
5 *29:6 0.000148957
6 *29:7 0.000119166
7 *29:8 0.000119166
8 *29:9 0.00020854
9 *29:12 8.93744e-05
10 *29:13 4.61179e-05
11 *29:14 6.14906e-05
12 *29:15 0.000169099
13 *29:16 0.000169099
14 *29:17 0.000107609
15 *29:18 9.22359e-05
16 *29:19 0.000178749
17 *29:20 0.000178749

*RES
1 *29:20 *323:A 1.4
2 *29:19 *29:20 1.49141
3 *29:18 *29:19 1.4
4 *29:17 *29:18 0.745699
5 *29:16 *29:17 0.124283
6 *29:15 *29:16 1.24283
7 *29:14 *29:15 0.124283
8 *29:13 *29:14 0.372849
9 *29:12 *29:13 1.4
10 *29:9 *29:12 0.745707
11 *29:9 *283:Q 1.4
12 *29:8 *243:A 1.4
13 *29:7 *29:9 0.994276
14 *29:6 *29:8 0.994276
15 *29:5 *29:7 1.4
16 *29:3 *29:6 0.248569
17 *29:2 *29:5 0.497132
18 *29:1 *242:A 1.4
19 *29:1 *29:3 0.248569
20 *29:1 *29:2 1.4
21 *29:0 *29:1 0.03
*END

*D_NET *30 0.000389197

*CONN
*I *244:Y O *C 27.4875 16.965 *L 0 *D CLKINVX1
*I *225:B0 I *C 28.855 14.935 *L 0.0053 *D OAI21X2

*CAP
1 *244:Y 3.07453e-05
2 *30:1 3.07453e-05
3 *30:2 4.46872e-05
4 *30:3 8.93744e-05
5 *30:4 0.000119166
6 *30:5 7.44787e-05

*RES
1 *30:5 *225:B0 1.4
2 *30:4 *30:5 0.621422
3 *30:3 *30:4 0.372853
4 *30:2 *30:3 0.372853
5 *30:1 *30:2 1.4
6 *244:Y *30:1 0.248566
*END

*D_NET *31 0.000913774

*CONN
*I *245:Y O *C 33.2875 14.935 *L 0 *D INVX1
*I *269:A1 I *C 39.295 12.035 *L 0.00528 *D OAI22X2

*CAP
1 *31:0 7.44787e-05
2 *31:1 7.44787e-05
3 *31:2 4.61179e-05
4 *31:4 6.14906e-05
5 *31:5 0.000276708
6 *31:6 0.000261335
7 *31:7 1.48957e-05
8 *31:8 5.9583e-05
9 *31:9 4.46872e-05

*RES
1 *31:9 *269:A1 1.4
2 *31:8 *31:9 0.372853
3 *31:7 *31:8 0.124284
4 *31:6 *31:7 1.4
5 *31:5 *31:6 2.11281
6 *31:4 *31:5 0.124283
7 *31:2 *31:4 0.372849
8 *31:1 *245:Y 1.4
9 *31:0 *31:2 1.4
10 *31:0 *31:1 0.621422
*END

*D_NET *32 0.000257593

*CONN
*I *320:B I *C 23.635 9.135 *L 0.00542 *D NOR2X2
*I *246:Y O *C 25.7475 9.715 *L 0 *D INVX1

*CAP
1 *32:2 0.000100574
2 *32:4 0.000100574
3 *32:5 2.82228e-05
4 *32:6 2.82228e-05

*RES
1 *32:6 *246:Y 1.4
2 *32:5 *32:6 0.248574
3 *32:4 *32:5 1.4
4 *32:2 *32:4 0.869983
5 *32:1 *320:B 1.4
6 *32:1 *32:2 1.4
7 *32:0 *32:1 0.03
*END

*D_NET *33 0.00095905

*CONN
*I *248:C I *C 26.535 22.185 *L 0.00289 *D NAND3BX1
*I *225:Y O *C 27.695 14.355 *L 0 *D OAI21X2

*CAP
1 *33:2 4.61179e-05
2 *33:4 4.61179e-05
3 *33:5 0.000342602
4 *33:6 0.000342602
5 *33:7 4.61179e-05
6 *33:8 4.61179e-05
7 *33:9 4.46872e-05
8 *33:10 4.46872e-05

*RES
1 *33:10 *225:Y 1.4
2 *33:9 *33:10 0.372853
3 *33:8 *33:9 1.4
4 *33:7 *33:8 0.372849
5 *33:6 *33:7 1.4
6 *33:5 *33:6 2.85854
7 *33:4 *33:5 1.4
8 *33:2 *33:4 0.372849
9 *33:1 *248:C 1.4
10 *33:1 *33:2 1.4
11 *33:0 *33:1 0.220714
*END

*D_NET *34 0.000228858

*CONN
*I *251:Y O *C 23.635 17.545 *L 0 *D NAND2X1
*I *252:B0 I *C 25.665 16.965 *L 0.0028 *D OAI21X1

*CAP
1 *34:3 8.62062e-05
2 *34:4 8.62062e-05
3 *34:5 2.82228e-05
4 *34:6 2.82228e-05

*RES
1 *34:6 *252:B0 1.4
2 *34:5 *34:6 0.248574
3 *34:4 *34:5 1.4
4 *34:3 *34:4 0.7457
5 *34:1 *34:3 1.4
6 *34:1 *251:Y 1.4
7 *34:0 *34:1 0.220714
*END

*D_NET *35 0.000508011

*CONN
*I *251:B I *C 23.635 16.675 *L 0.00284 *D NAND2X1
*I *250:Y O *C 23.925 21.895 *L 0 *D AND2X1

*CAP
1 *35:1 0.000239894
2 *35:2 0.000254006
3 *35:3 1.41114e-05

*RES
1 *35:3 *250:Y 1.4
2 *35:2 *35:3 0.124287
3 *35:1 *35:2 2.11288
4 *251:B *35:1 1.4
*END

*D_NET *36 0.00205086

*CONN
*I *250:B I *C 22.765 22.475 *L 0.00172 *D AND2X1
*I *249:Y O *C 37.6375 27.405 *L 0 *D CLKINVX1

*CAP
1 *36:1 0.00021198
2 *36:2 0.00021198
3 *36:3 0.000454348
4 *36:4 0.000469343
5 *36:5 0.000194941
6 *36:6 0.000194941
7 *36:7 0.000134959
8 *36:8 0.000119964
9 *36:9 2.92e-05
10 *36:10 2.92e-05

*RES
1 *36:10 *249:Y 1.4
2 *36:9 *36:10 0.248569
3 *36:8 *36:9 1.4
4 *36:7 *36:8 0.994265
5 *36:6 *36:7 0.124283
6 *36:5 *36:6 1.4914
7 *36:4 *36:5 0.124283
8 *36:3 *36:4 3.85278
9 *36:2 *36:3 1.4
10 *36:1 *36:2 1.86431
11 *250:B *36:1 1.4
*END

*D_NET *37 6.14906e-05

*CONN
*I *253:Y O *C 26.6175 16.965 *L 0 *D CLKINVX1
*I *244:A I *C 27.115 16.965 *L 0.00273 *D CLKINVX1

*CAP
1 *253:Y 3.07453e-05
2 *244:A 3.07453e-05

*RES
1 *253:Y *244:A 0.248566
*END

*D_NET *38 0.000399689

*CONN
*I *254:Y O *C 38.425 17.545 *L 0 *D NAND2X1
*I *235:B I *C 42.195 16.675 *L 0.00284 *D NAND2X1

*CAP
1 *38:3 3.07453e-05
2 *38:4 4.61179e-05
3 *38:5 0.000169099
4 *38:6 0.000153726

*RES
1 *38:7 *235:B 1.4
2 *38:7 *38:8 0.220714
3 *38:6 *38:7 1.4
4 *38:5 *38:6 1.24283
5 *38:4 *38:5 0.124283
6 *38:3 *38:4 0.248566
7 *38:1 *38:3 1.4
8 *38:1 *254:Y 1.4
9 *38:0 *38:1 0.220714
*END

*D_NET *39 0.000451565

*CONN
*I *256:Y O *C 24.795 21.605 *L 0 *D NAND2BX1
*I *252:A1 I *C 25.085 17.255 *L 0.00274 *D OAI21X1

*CAP
1 *39:0 0.000141114
2 *39:1 0.000127003
3 *39:2 9.87799e-05
4 *39:4 8.46685e-05

*RES
1 *39:4 *252:A1 1.4
2 *39:2 *39:4 0.745723
3 *39:1 *256:Y 1.4
4 *39:0 *39:2 0.124287
5 *39:0 *39:1 1.11859
*END

*D_NET *40 0.00108528

*CONN
*I *255:Y O *C 17.6275 20.155 *L 0 *D CLKINVX1
*I *256:B I *C 24.795 22.185 *L 0.00284 *D NAND2BX1

*CAP
1 *40:5 0.000141114
2 *40:6 0.000141114
3 *40:7 0.000359192
4 *40:8 0.000359192
5 *40:9 4.23343e-05
6 *40:10 4.23343e-05

*RES
1 *40:10 *256:B 1.4
2 *40:9 *40:10 0.372862
3 *40:8 *40:9 1.4
4 *40:7 *40:8 3.10708
5 *40:6 *40:7 1.4
6 *40:5 *40:6 1.24287
7 *40:3 *40:5 1.4
8 *40:3 *40:4 0.220714
9 *40:1 *40:3 1.4
10 *40:1 *255:Y 1.4
11 *40:0 *40:1 0.220714
*END

*D_NET *41 0.000508011

*CONN
*I *258:A0 I *C 24.505 20.155 *L 0.00271 *D OAI21X1
*I *257:Y O *C 24.8775 14.935 *L 0 *D CLKINVX1

*CAP
1 *41:0 0.000169337
2 *41:1 9.87799e-05
3 *41:2 0.000155226
4 *41:3 8.46685e-05

*RES
1 *41:3 *257:Y 1.4
2 *41:2 *258:A0 1.4
3 *41:1 *41:3 0.745723
4 *41:0 *41:2 1.36716
5 *41:0 *41:1 0.124287
*END

*D_NET *42 0.000310451

*CONN
*I *258:A1 I *C 24.795 19.865 *L 0.00274 *D OAI21X1
*I *252:Y O *C 25.955 16.675 *L 0 *D OAI21X1

*CAP
1 *42:0 7.05571e-05
2 *42:1 0.000127003
3 *42:2 2.82228e-05
4 *42:3 8.46685e-05

*RES
1 *42:3 *252:Y 1.4
2 *42:2 *258:A1 1.4
3 *42:1 *42:3 0.745723
4 *42:0 *42:2 0.248574
5 *42:0 *42:1 0.372862
*END

*D_NET *43 0.00150483

*CONN
*I *259:A1 I *C 34.655 14.645 *L 0.00527 *D AOI21X2
*I *243:Y O *C 39.295 25.665 *L 0 *D CLKINVX2

*CAP
1 *43:2 3.07453e-05
2 *43:4 3.07453e-05
3 *43:5 0.000312811
4 *43:6 0.000312811
5 *43:7 0.000215217
6 *43:8 0.000215217
7 *43:9 0.000193645
8 *43:10 0.000193645

*RES
1 *43:10 *243:Y 1.4
2 *43:9 *43:10 1.6157
3 *43:8 *43:9 1.4
4 *43:7 *43:8 1.73996
5 *43:6 *43:7 1.4
6 *43:5 *43:6 2.60997
7 *43:4 *43:5 1.4
8 *43:2 *43:4 0.248566
9 *43:1 *259:A1 1.4
10 *43:1 *43:2 1.4
11 *43:0 *43:1 0.220714
*END

*D_NET *44 0.00306549

*CONN
*I *232:B I *C 16.095 19.865 *L 0.00534 *D NAND2X2
*I *217:A I *C 17.255 14.935 *L 0.00534 *D CLKBUFX6
*I *281:Q O *C 12.615 16.965 *L 0 *D DFFHQX4
*I *317:B I *C 12.615 14.645 *L 0.00273 *D MXI2X1
*I *270:A I *C 14.645 11.745 *L 0.00521 *D CLKINVX2
*I *233:A1 I *C 12.905 25.085 *L 0.0107 *D OAI21X4
*I *262:A I *C 16.975 22.4125 *L 0.00163 *D INVXL
*I *231:B I *C 13.775 22.185 *L 0.0028 *D NOR2X1

*CAP
1 *44:1 0.000211671
2 *44:2 0.000172412
3 *44:3 0.000268117
4 *44:5 0.000172412
5 *44:6 8.46685e-05
6 *44:7 0.000310451
7 *44:8 2.82228e-05
8 *44:9 0.000169337
9 *44:10 0.000254006
10 *44:12 7.18385e-05
11 *44:14 0.000254006
12 *44:15 0.000215515
13 *44:16 0.000141114
14 *44:18 0.000143677
15 *44:19 9.87799e-05
16 *44:20 0.000100574
17 *44:21 4.23343e-05
18 *44:22 8.46685e-05
19 *44:23 5.64457e-05
20 *270:A 0.000100574
21 *44:25 4.23343e-05
22 *44:27 4.23343e-05

*RES
1 *44:27 *231:B 1.4
2 *44:25 *262:A 1.4
3 *44:23 *44:27 0.372862
4 *44:22 *233:A1 1.4
5 *44:21 *44:25 0.372862
6 *44:20 *270:A 0.869983
7 *44:19 *44:23 0.124287
8 *44:19 *44:22 0.745723
9 *44:18 *44:21 1.4
10 *44:16 *44:20 1.4
11 *44:15 *44:19 1.4
12 *44:15 *44:18 1.24283
13 *44:14 *317:B 1.4
14 *44:14 *44:16 1.24287
15 *44:12 *44:15 0.621417
16 *44:10 *44:14 0.994298
17 *44:10 *281:Q 1.4
18 *44:9 *44:12 1.4
19 *44:8 *217:A 1.4
20 *44:7 *44:10 1.24287
21 *44:7 *44:9 1.49145
22 *44:6 *44:8 0.248574
23 *44:5 *44:7 1.4
24 *44:3 *44:6 0.497149
25 *44:2 *44:5 1.4914
26 *44:1 *232:B 1.4
27 *44:1 *44:3 1.86431
28 *44:1 *44:2 1.4
29 *44:0 *44:1 0.220714
*END

*D_NET *45 0.000344312

*CONN
*I *263:Y O *C 18.125 20.155 *L 0 *D OAI2BB1X1
*I *264:B I *C 21.315 19.865 *L 0.00534 *D NAND2X2

*CAP
1 *45:1 1.41114e-05
2 *45:3 1.41114e-05
3 *45:4 0.000114942
4 *45:5 0.000114942
5 *45:8 4.31031e-05
6 *264:B 4.31031e-05

*RES
1 *45:8 *264:B 0.37285
2 *45:6 *45:8 1.4
3 *45:6 *45:7 0.220714
4 *45:5 *45:6 1.4
5 *45:4 *45:5 0.994267
6 *45:3 *45:4 1.4
7 *45:1 *45:3 0.124287
8 *45:1 *263:Y 1.4
9 *45:0 *45:1 0.212143
*END

*D_NET *46 0.000451565

*CONN
*I *262:Y O *C 17.3375 22.475 *L 0 *D INVXL
*I *263:A0N I *C 19.285 20.155 *L 0.00173 *D OAI2BB1X1

*CAP
1 *46:0 0.000183448
2 *46:1 8.46685e-05
3 *46:2 0.000141114
4 *46:4 4.23343e-05

*RES
1 *46:4 *263:A0N 1.4
2 *46:2 *46:4 0.372862
3 *46:1 *262:Y 1.4
4 *46:0 *46:2 0.870011
5 *46:0 *46:1 0.745723
*END

*D_NET *47 0.000742507

*CONN
*I *261:Y O *C 15.0175 22.475 *L 0 *D INVXL
*I *263:A1N I *C 19.865 19.865 *L 0.0017 *D OAI2BB1X1

*CAP
1 *47:0 7.05571e-05
2 *47:1 7.05571e-05
3 *47:2 0.000244251
4 *47:4 0.000244251
5 *47:5 5.64457e-05
6 *47:6 5.64457e-05

*RES
1 *47:6 *263:A1N 1.4
2 *47:5 *47:6 0.497149
3 *47:4 *47:5 1.4
4 *47:2 *47:4 2.11282
5 *47:1 *261:Y 1.4
6 *47:0 *47:2 1.4
7 *47:0 *47:1 0.621436
*END

*D_NET *48 0.000601393

*CONN
*I *264:A I *C 20.735 20.155 *L 0.00547 *D NAND2X2
*I *260:Y O *C 16.095 22.765 *L 0 *D NAND2X1

*CAP
1 *48:2 0.000100574
2 *48:4 0.000129309
3 *48:5 0.000129309
4 *48:6 0.000100574
5 *48:7 5.64457e-05
6 *48:8 5.64457e-05
7 *48:9 1.43677e-05
8 *260:Y 1.43677e-05

*RES
1 *48:9 *260:Y 0.124283
2 *48:8 *48:9 1.4
3 *48:7 *48:8 0.497149
4 *48:6 *48:7 1.4
5 *48:5 *48:6 0.869983
6 *48:4 *48:5 0.248567
7 *48:2 *48:4 0.869983
8 *48:1 *264:A 1.4
9 *48:1 *48:2 1.4
10 *48:0 *48:1 0.220714
*END

*D_NET *49 0.000338198

*CONN
*I *265:Y O *C 36.975 17.545 *L 0 *D NAND2X1
*I *234:B I *C 40.455 17.255 *L 0.00534 *D NAND2X2

*CAP
1 *49:2 1.53726e-05
2 *49:3 9.22359e-05
3 *265:Y 1.53726e-05
4 *49:5 9.22359e-05
5 *49:8 6.14906e-05
6 *234:B 6.14906e-05

*RES
1 *49:8 *234:B 0.497132
2 *49:6 *49:8 1.4
3 *49:6 *49:7 0.220714
4 *49:5 *49:6 1.4
5 *49:3 *49:5 0.745699
6 *49:2 *265:Y 0.124283
7 *49:1 *49:3 1.4
8 *49:1 *49:2 1.4
9 *49:0 *49:1 0.220714
*END

*D_NET *50 0.000989573

*CONN
*I *268:A0 I *C 22.765 20.155 *L 0.00265 *D AOI21X1
*I *267:Y O *C 31.755 20.445 *L 0 *D AND2X1

*CAP
1 *50:2 0.000464995
2 *50:4 0.000464995
3 *50:5 2.97915e-05
4 *50:6 2.97915e-05

*RES