*SPEF "IEEE 1481-1998"
*DESIGN "count8"
*DATE "Wed Jun 24 09:19:56 2026"
*VENDOR "Cadence Design Systems, Inc."
*PROGRAM "Innovus"
*VERSION "21.15-s110_1"
*DESIGN_FLOW "PIN_CAP NONE" "NAME_SCOPE LOCAL"
*DIVIDER /
*DELIMITER :
*BUS_DELIMITER []
*T_UNIT 1 NS
*C_UNIT 1 PF
*R_UNIT 1 OHM
*L_UNIT 1 HENRY

// MMMC spef file for corner 'rc_corner'

*NAME_MAP

*1 FE_OCPN9_n_27
*2 FE_RN_2_0
*3 FE_RN_1_0
*4 FE_RN_0_0
*5 FE_OCPN6_counter_3
*6 FE_OCPN5_counter_1
*7 FE_OCPN2_counter_4
*8 FE_RN_2
*9 FE_OCPN0_counter_0
*10 FE_RN_1
*11 clk
*12 rst
*13 u_d
*14 counter[7]
*15 counter[6]
*16 counter[5]
*17 counter[4]
*18 counter[3]
*19 counter[2]
*20 counter[1]
*21 counter[0]
*22 counter_u_d[2]
*23 n_3
*24 n_4
*25 n_5
*26 n_7
*27 n_8
*28 n_9
*29 n_10
*30 n_11
*31 n_12
*32 n_14
*33 n_15
*34 n_16
*35 n_18
*36 n_19
*37 n_20
*38 n_21
*39 n_22
*40 n_23
*41 n_24
*42 n_26
*43 n_27
*44 n_29
*45 n_31
*46 n_32
*47 n_33
*48 n_34
*49 n_35
*50 n_36
*51 n_37
*52 n_38
*53 n_39
*54 n_40
*55 n_41
*56 n_42
*57 n_43
*58 n_44
*59 n_46
*60 n_47
*61 n_48
*62 n_49
*63 n_54
*64 n_61
*65 n_67
*66 n_70
*67 n_71
*68 n_72
*69 FE_OCPC9_n_27
*70 FE_RC_5_0
*71 FE_RC_4_0
*72 FE_RC_3_0
*73 FE_RC_2_0
*74 FE_OCPC6_counter_3
*75 FE_OCPC5_counter_1
*76 FE_OCPC3_counter_4
*77 FE_RC_1_0
*78 FE_RC_0_0
*79 g4833__6783_dup
*80 FE_OCPC1_counter_0
*81 g4828__4319_dup
*82 FE_OFC0_rst
*83 counter_u_d_reg\[7\]
*84 counter_u_d_reg\[6\]
*85 g4796__2398
*86 counter_u_d_reg\[4\]
*87 counter_u_d_reg\[5\]
*88 g4798__5107
*89 g4793__6260
*90 g4794__8428
*91 g4800__5526
*92 g4801__6783
*93 g4795__3680
*94 counter_u_d_reg\[1\]
*95 g4806
*96 g4808__1617
*97 g4809__2802
*98 g4802__5122
*99 g4804__7098
*100 g4811
*101 g4805__6131
*102 g4812__1881
*103 g4813__5115
*104 g4814__7482
*105 g4815__4733
*106 g4816__6161
*107 g4820__9945
*108 g4817__2883
*109 g4819__1666
*110 g4822__7410
*111 counter_u_d_reg\[0\]
*112 g4824__6417
*113 g4823__5477
*114 g4825__5107
*115 g4834__6260
*116 g4828__4319
*117 g4830__8428
*118 g4826__5526
*119 g4833__6783
*120 g4832__3680
*121 g4827__1617
*122 g4831__2802
*123 g4836__1705
*124 g4843
*125 g4837
*126 counter_u_d_reg\[2\]
*127 fopt2
*128 counter_u_d_reg\[3\]
*129 fopt4864
*130 fopt4867
*131 g2
*132 g4869


*PORTS

*11 I *C 0 19.575
*12 I *C 22.475 0
*13 I *C 21.025 0
*14 O *C 26.245 0
*15 O *C 40.89 18.415
*16 O *C 40.89 23.345
*17 O *C 0 18.995
*18 O *C 17.545 39.73
*19 O *C 0 25.375
*20 O *C 0 17.835
*21 O *C 19.285 0


*D_NET *1 0.000453796

*CONN
*I *69:Y O *C 11.165 21.895 *L 0 *D BUFX3
*I *98:B0 I *C 11.745 27.405 *L 0.00546 *D AOI32X2

*CAP
1 *1:1 7.44446e-05
2 *1:2 8.93335e-05
3 *1:3 8.8304e-05
4 *1:4 8.6245e-05
5 *1:5 6.41495e-05
6 *1:6 5.13196e-05

*RES
1 *1:6 *98:B0 1.4
2 *1:5 *1:6 0.497138
3 *1:4 *1:5 0.124285
4 *1:3 *1:4 0.621442
5 *1:2 *1:3 0.124289
6 *1:1 *1:2 0.621444
7 *69:Y *1:1 1.4
*END

*D_NET *2 0.000208445

*CONN
*I *72:Y O *C 18.415 10.005 *L 0 *D CLKXOR2X1
*I *73:A I *C 18.705 11.745 *L 0.00259 *D MXI2X1

*CAP
1 *2:1 4.46667e-05
2 *2:2 5.95557e-05
3 *2:3 5.95557e-05
4 *2:4 4.46667e-05

*RES
1 *2:4 *73:A 1.4
2 *2:3 *2:4 0.372866
3 *2:2 *2:3 0.124289
4 *2:1 *2:2 0.372866
5 *72:Y *2:1 1.4
*END

*D_NET *3 0.000568507

*CONN
*I *73:B I *C 19.865 12.035 *L 0.00273 *D MXI2X1
*I *71:Y O *C 23.055 9.715 *L 0 *D AOI21X1

*CAP
1 *3:2 0.000165142
2 *3:4 0.000165142
3 *3:5 0.000119111
4 *3:6 0.000119111

*RES
1 *3:6 *71:Y 1.4
2 *3:5 *3:6 0.99431
3 *3:4 *3:5 1.4
4 *3:2 *3:4 1.36718
5 *3:1 *73:B 1.4
6 *3:1 *3:2 1.4
7 *3:0 *3:1 0.220714
*END

*D_NET *4 0.000238471

*CONN
*I *71:B0 I *C 22.475 9.425 *L 0.00277 *D AOI21X1
*I *70:Y O *C 23.925 10.295 *L 0 *D NOR2X1

*CAP
1 *4:1 1.48889e-05
2 *4:2 4.46667e-05
3 *4:3 8.93335e-05
4 *4:4 5.95557e-05
5 *4:5 1.50129e-05
6 *70:Y 1.50129e-05

*RES
1 *4:5 *70:Y 0.124289
2 *4:4 *4:5 1.4
3 *4:3 *4:4 0.497155
4 *4:2 *4:3 0.248578
5 *4:1 *4:2 0.124289
6 *71:B0 *4:1 1.4
*END

*D_NET *5 0.000586883

*CONN
*I *74:Y O *C 13.485 27.405 *L 0 *D CLKBUFX2
*I *90:A I *C 8.845 25.375 *L 0.00259 *D MXI2X1

*CAP
1 *5:3 0.000185655
2 *5:4 0.000185655
3 *5:5 1.28299e-05
4 *5:6 0.000107787
5 *5:7 9.49568e-05

*RES
1 *5:7 *90:A 1.4
2 *5:6 *5:7 0.870002
3 *5:5 *5:6 0.124285
4 *5:4 *5:5 1.4
5 *5:3 *5:4 1.86433
6 *5:1 *5:3 1.4
7 *5:1 *74:Y 1.4
8 *5:0 *5:1 0.220714
*END

*D_NET *6 0.0010184

*CONN
*I *73:S0 I *C 18.995 11.165 *L 0.00509 *D MXI2X1
*I *75:Y O *C 12.035 14.935 *L 0 *D CLKBUFX2

*CAP
1 *6:2 0.00036031
2 *6:4 0.00036031
3 *6:5 0.000148889
4 *6:6 0.000148889

*RES
1 *6:6 *75:Y 1.4
2 *6:5 *6:6 1.24289
3 *6:4 *6:5 1.4
4 *6:2 *6:4 2.98293
5 *6:1 *73:S0 1.4
6 *6:1 *6:2 1.4
7 *6:0 *6:1 0.220714
*END

*D_NET *7 0.00244842

*CONN
*I *77:A I *C 26.535 17.255 *L 0.00631 *D NAND4X2
*I *121:B I *C 21.895 17.255 *L 0.00534 *D NAND2X2
*I *116:B I *C 18.415 20.155 *L 0.0028 *D NOR2X1
*I *86:Q O *C 16.965 17.255 *L 0 *D DFFRHQX4
*I *112:A I *C 18.705 17.255 *L 0.00564 *D NOR2X2
*I *76:A I *C 14.065 19.865 *L 0.00172 *D CLKBUFX2
*I *81:A I *C 16.675 20.155 *L 0.00263 *D NOR2X1

*CAP
1 *7:2 0.000222187
2 *7:4 0.000237199
3 *7:5 9.00776e-05
4 *7:6 7.50647e-05
5 *7:7 7.44446e-05
6 *7:8 7.44446e-05
7 *7:9 6.00517e-05
8 *7:10 0.000120103
9 *121:B 6.00517e-05
10 *7:12 0.000150129
11 *7:13 0.000105091
12 *7:14 0.000225194
13 *7:15 0.000134
14 *7:16 7.44446e-05
15 *7:17 0.000150129
16 *7:18 8.93335e-05
17 *7:19 4.46667e-05
18 *7:20 4.46667e-05
19 *7:21 4.46667e-05
20 *7:22 8.93335e-05
21 *7:24 1.50129e-05
22 *7:25 8.93335e-05
23 *7:27 8.93335e-05
24 *112:A 1.50129e-05
25 *7:29 7.44446e-05

*RES
1 *7:29 *81:A 1.4
2 *7:27 *76:A 1.4
3 *7:25 *7:29 0.621444
4 *7:24 *112:A 0.124289
5 *7:22 *7:27 0.745733
6 *7:21 *86:Q 1.4
7 *7:20 *7:25 0.124289
8 *7:19 *7:24 1.4
9 *7:18 *116:B 1.4
10 *7:17 *7:22 1.4
11 *7:16 *7:21 0.372866
12 *7:16 *7:20 0.248578
13 *7:15 *7:19 0.372866
14 *7:15 *7:18 0.745733
15 *7:14 *7:17 1.24289
16 *7:14 *7:16 1.4
17 *7:13 *7:15 1.4
18 *7:13 *7:14 0.621444
19 *7:12 *7:13 0.248578
20 *7:10 *7:12 0.99431
21 *7:9 *121:B 0.497155
22 *7:8 *7:10 1.4
23 *7:7 *7:9 1.4
24 *7:7 *7:8 0.621444
25 *7:6 *7:7 1.4
26 *7:5 *7:6 0.621444
27 *7:4 *7:5 0.124289
28 *7:2 *7:4 1.86432
29 *7:1 *77:A 1.4
30 *7:1 *7:2 1.4
31 *7:0 *7:1 0.220714
*END

*D_NET *8 0.000449644

*CONN
*I *79:Y O *C 25.375 25.955 *L 0 *D NOR2X1
*I *103:C I *C 21.605 25.375 *L 0.00285 *D NAND3X1

*CAP
1 *8:3 0.000180155
2 *8:4 0.000180155
3 *8:5 2.97778e-05
4 *8:6 4.46667e-05
5 *8:7 1.48889e-05

*RES
1 *8:7 *103:C 1.4
2 *8:6 *8:7 0.124289
3 *8:5 *8:6 0.248578
4 *8:4 *8:5 1.4
5 *8:3 *8:4 1.49147
6 *8:1 *8:3 1.4
7 *8:1 *79:Y 1.4
8 *8:0 *8:1 0.03
*END

*D_NET *9 0.00679812

*CONN
*I *122:A I *C 23.055 25.375 *L 0.00547 *D NAND2X2
*I *132:A I *C 19.285 25.085 *L 0.00282 *D AND2X4
*I *110:C I *C 23.635 22.765 *L 0.00525 *D NOR3X2
*I *114:A I *C 29.725 25.375 *L 0.00263 *D NOR2X1
*I *117:A I *C 19.865 22.475 *L 0.00564 *D NOR2X2
*I *109:C I *C 23.345 19.865 *L 0.00534 *D NAND3X2
*I *123:A I *C 12.615 19.865 *L 0.00564 *D NOR2X2
*I *72:A I *C 18.995 9.135 *L 0.00183 *D CLKXOR2X1
*I *111:Q O *C 9.715 9.425 *L 0 *D DFFRHQX4
*I *80:A I *C 26.535 9.425 *L 0.00172 *D BUFX2

*CAP
1 *9:2 0.000165142
2 *9:4 7.50647e-05
3 *9:5 0.000150129
4 *9:6 4.46667e-05
5 *9:7 6.00517e-05
6 *9:8 0.000105091
7 *9:9 5.95557e-05
8 *9:10 0.000249181
9 *9:11 7.50647e-05
10 *9:12 0.000104222
11 *9:13 0.000219155
12 *9:14 7.44446e-05
13 *9:15 0.000134
14 *9:16 2.62006e-05
15 *9:17 0.000104222
16 *9:19 5.95557e-05
17 *9:21 2.62006e-05
18 *9:22 7.44446e-05
19 *9:23 0.000119111
20 *9:24 2.60159e-05
21 *9:25 4.46667e-05
22 *9:26 0.000104222
23 *114:A 2.60159e-05
24 *9:29 4.50388e-05
25 *9:31 6.00517e-05
26 *9:32 0.000375323
27 *9:33 0.000375323
28 *9:34 0.000150129
29 *9:35 0.000135116
30 *9:36 4.46667e-05
31 *9:37 5.95557e-05
32 *9:38 1.50129e-05
33 *9:39 0.000595557
34 *123:A 1.50129e-05
35 *9:41 0.000580668
36 *9:42 0.000480414
37 *9:43 0.000687587
38 *9:44 0.000180155
39 *9:45 0.000387329
40 *9:46 7.44446e-05
41 *9:47 8.93335e-05
42 *9:48 7.86019e-05
43 *9:49 7.44446e-05
44 *9:50 8.93335e-05
45 *9:51 7.86019e-05

*RES
1 *9:51 *80:A 1.4
2 *9:50 *111:Q 1.4
3 *9:49 *72:A 1.4
4 *9:48 *9:51 0.745732
5 *9:47 *9:50 0.745733
6 *9:46 *9:49 0.621444
7 *9:45 *9:48 1.4
8 *9:44 *9:47 1.4
9 *9:43 *9:46 1.4
10 *9:43 *9:45 3.2315
11 *9:42 *9:44 1.49147
12 *9:42 *9:43 2.48578
13 *9:41 *9:42 1.4
14 *9:39 *9:41 4.84726
15 *9:38 *123:A 0.124289
16 *9:37 *9:39 0.124289
17 *9:36 *9:38 1.4
18 *9:36 *9:37 0.372866
19 *9:35 *9:36 1.4
20 *9:34 *9:35 1.1186
21 *9:33 *9:34 0.124289
22 *9:32 *9:33 2.98293
23 *9:31 *9:32 0.124289
24 *9:29 *9:31 0.372866
25 *9:26 *109:C 1.4
26 *9:26 *9:29 1.4
27 *9:25 *117:A 1.4
28 *9:24 *114:A 0.248568
29 *9:23 *9:26 0.870021
30 *9:22 *9:25 0.372866
31 *9:21 *9:24 1.4
32 *9:19 *9:23 0.124289
33 *9:17 *9:22 0.248578
34 *9:16 *9:21 0.248577
35 *9:15 *110:C 1.4
36 *9:15 *9:19 0.372866
37 *9:14 *132:A 1.4
38 *9:14 *9:17 0.621444
39 *9:13 *9:16 1.4
40 *9:12 *9:15 0.745733
41 *9:11 *9:14 1.4
42 *9:10 *9:13 1.98857
43 *9:9 *9:12 0.124289
44 *9:8 *9:11 0.621444
45 *9:7 *9:10 0.248578
46 *9:6 *9:9 0.372866
47 *9:5 *9:8 0.248578
48 *9:4 *9:7 0.248578
49 *9:4 *9:6 1.4
50 *9:2 *9:5 0.99431
51 *9:2 *9:4 0.372866
52 *9:1 *122:A 1.4
53 *9:1 *9:2 1.4
54 *9:0 *9:1 0.220714
*END

*D_NET *10 0.000985645

*CONN
*I *81:Y O *C 16.965 20.735 *L 0 *D NOR2X1
*I *103:B I *C 21.315 25.665 *L 0.00285 *D NAND3X1

*CAP
1 *81:Y 1.50129e-05
2 *10:1 1.50129e-05
3 *10:2 4.46667e-05
4 *10:3 5.95557e-05
5 *10:4 0.000193556
6 *10:5 0.000178667
7 *10:6 0.000165142
8 *10:7 0.000165142
9 *10:8 5.95557e-05
10 *10:9 7.44446e-05
11 *10:10 1.48889e-05

*RES
1 *10:10 *103:B 1.4
2 *10:9 *10:10 0.124289
3 *10:8 *10:9 0.497155
4 *10:7 *10:8 1.4
5 *10:6 *10:7 1.36718
6 *10:5 *10:6 1.4
7 *10:4 *10:5 1.49147
8 *10:3 *10:4 0.124289
9 *10:2 *10:3 0.372866
10 *10:1 *10:2 1.4
11 *81:Y *10:1 0.124289
*END

*D_NET *11 0.00740359

*CONN
*I *128:CK I *C 17.835 30.305 *L 0.00171 *D DFFRHQX4
*I *87:CK I *C 23.925 30.305 *L 0.00175 *D DFFRHQX2
*I *126:CK I *C 16.675 27.985 *L 0.00167 *D DFFRX4
*I *86:CK I *C 17.545 17.255 *L 0.00171 *D DFFRHQX4
*I *83:CK I *C 23.925 12.035 *L 0.00172 *D DFFRHQX1
*P *11 I *C 0 19.575 *L 0
*I *94:CK I *C 9.135 12.035 *L 0.00171 *D DFFRHQX4
*I *111:CK I *C 9.135 9.425 *L 0.00171 *D DFFRHQX4
*I *84:CK I *C 32.045 14.645 *L 0.00173 *D DFFRHQX8

*CAP
1 *11:2 0.000309425
2 *11:4 0.000259917
3 *11:5 4.9508e-05
4 *11:7 0.000699701
5 *11:8 0.000102639
6 *11:11 0.00084859
7 *11:12 0.000102639
8 *11:13 0.000165142
9 *11:14 0.000148889
10 *11:16 4.50388e-05
11 *11:17 0.000135116
12 *11:18 0.000330285
13 *11:19 5.95557e-05
14 *11:20 0.000225194
15 *11:21 0.000345297
16 *11:22 5.95557e-05
17 *11:23 0.000225194
18 *11:24 6.00517e-05
19 *11:26 0.000120103
20 *11:27 4.50388e-05
21 *11:28 0.000105091
22 *11:29 0.000104222
23 *11:30 0.000268
24 *11:31 5.95557e-05
25 *11:32 4.46667e-05
26 *11:33 0.000178667
27 *11:34 0.000134
28 *11:35 0.00037926
29 *11:37 0.000405349
30 *11:38 0.000163778
31 *11:39 0.00037926
32 *11 0.000405349
33 *11:41 0.000253112
34 *11:42 2.62006e-05
35 *11:43 0.000134
36 *11:45 2.62006e-05

*RES
1 *11:45 *84:CK 1.4
2 *11:43 *111:CK 1.4
3 *11:42 *11:45 0.248577
4 *11:41 *94:CK 1.4
5 *11:41 *11:43 1.1186
6 *11:39 *11:42 1.4
7 *11:38 *11:41 0.99431
8 *11:37 *11 3.3558
9 *11:35 *11:39 3.47999
10 *11:34 *11:38 0.372866
11 *11:33 *11:37 1.4
12 *11:32 *83:CK 1.4
13 *11:31 *11:35 1.4
14 *11:30 *11:34 0.745733
15 *11:30 *11:33 1.49147
16 *11:29 *11:32 0.372866
17 *11:29 *11:31 0.497155
18 *11:28 *11:30 1.4
19 *11:27 *11:29 1.4
20 *11:26 *11:28 0.870021
21 *11:24 *11:27 0.372866
22 *11:23 *11:26 0.124289
23 *11:22 *86:CK 1.4
24 *11:21 *11:24 0.124289
25 *11:20 *11:23 1.74004
26 *11:19 *11:22 0.497155
27 *11:18 *11:21 2.73435
28 *11:17 *11:20 0.124289
29 *11:16 *11:19 1.4
30 *11:14 *11:18 1.4
31 *11:13 *11:17 0.99431
32 *11:13 *11:16 0.372866
33 *11:12 *126:CK 1.4
34 *11:11 *11:14 1.24289
35 *11:11 *11:13 1.4
36 *11:8 *11:12 0.994276
37 *11:7 *11:11 6.09009
38 *11:6 *87:CK 1.4
39 *11:6 *11:9 0.220714
40 *11:5 *11:8 1.4
41 *11:5 *11:7 1.4
42 *11:4 *11:6 1.4
43 *11:2 *11:5 0.497155
44 *11:2 *11:4 2.61006
45 *11:1 *128:CK 1.4
46 *11:1 *11:2 1.4
47 *11:0 *11:1 0.220714
*END

*D_NET *12 0.00131022

*CONN
*P *12 I *C 22.475 0 *L 0
*I *82:A I *C 21.025 11.745 *L 0.00273 *D INVX1

*CAP
1 *12:0 0.000297778
2 *12:1 0.000431778
3 *12:2 0.000223334
4 *12 0.000357334

*RES
1 *12:2 *82:A 1.4
2 *12:1 *12 2.98293
3 *12:0 *12:2 1.86433
4 *12:0 *12:1 0.621444
*END

*D_NET *13 0.00786759

*CONN
*I *101:S0 I *C 14.355 21.605 *L 0.00509 *D MXI2X1
*I *120:B I *C 17.255 21.895 *L 0.00284 *D NAND2X1
*I *115:B I *C 15.515 20.155 *L 0.0028 *D NOR2X1
*I *98:A0 I *C 10.875 27.405 *L 0.00565 *D AOI32X2
*I *96:B0 I *C 19.285 14.935 *L 0.00278 *D AOI211X1
*I *72:B I *C 20.445 9.425 *L 0.00363 *D CLKXOR2X1
*I *119:A I *C 25.665 22.185 *L 0.00263 *D NOR2X1
*P *13 I *C 21.025 0 *L 0
*I *71:A1 I *C 22.185 9.715 *L 0.00278 *D AOI21X1
*I *108:A I *C 26.535 25.375 *L 0.00579 *D NAND3X2
*I *70:B I *C 23.925 9.715 *L 0.0028 *D NOR2X1
*I *79:A I *C 25.085 25.375 *L 0.00263 *D NOR2X1
*I *118:B I *C 28.565 9.425 *L 0.00171 *D NOR2XL
*I *92:B0 I *C 31.465 9.715 *L 0.00281 *D AOI33X1
*I *91:A1 I *C 27.985 16.965 *L 0.00269 *D AOI31X1

*CAP
1 *13:3 0.000165142
2 *13:4 0.000165142
3 *13:5 4.50388e-05
4 *13:6 8.93335e-05
5 *13:7 4.50388e-05
6 *13:8 4.50388e-05
7 *13:9 0.000269506
8 *13:10 0.000104222
9 *13:11 3.00259e-05
10 *13:12 3.00259e-05
11 *13:13 0.000269506
12 *13:14 0.000253112
13 *13:15 0.000135116
14 *13:17 0.000111393
15 *13:18 1.48889e-05
16 *13:19 0.000223334
17 *13:20 0.000135116
18 *13:23 0.000111393
19 *13:25 0.000210181
20 *13:26 0.000135116
21 *13:27 2.56598e-05
22 *13:28 0.000270233
23 *13:29 0.000135116
24 *13:30 2.56598e-05
25 *13:31 6.00517e-05
26 *13:32 4.46667e-05
27 *13:33 0.000225194
28 *13:35 0.000312667
29 *13:36 4.46667e-05
30 *13:37 0.000239204
31 *13:38 0.000357334
32 *13:40 2.90234e-05
33 *13:41 5.95557e-05
34 *13:42 0.000134
35 *13:44 5.24013e-05
36 *13:45 5.95557e-05
37 *13:46 0.000119111
38 *13:47 9.00776e-05
39 *13:48 6.63959e-05
40 *13:50 0.000357334
41 *13:51 0.000195168
42 *13:52 5.86614e-05
43 *13 0.000327556
44 *13:54 0.000248202
45 *13:55 4.46667e-05
46 *13:56 4.46667e-05
47 *13:57 0.000169128
48 *13:58 4.46667e-05
49 *13:59 4.46667e-05
50 *13:61 4.50388e-05
51 *13:62 2.70184e-05
52 *13:63 6.50398e-05
53 *13:64 5.95557e-05
54 *13:66 4.50388e-05
55 *108:A 2.70184e-05
56 *13:68 6.50398e-05
57 *13:69 1.48889e-05
58 *13:71 0.000156095
59 *13:72 0.000288207
60 *13:76 0.00013008
61 *13:77 1.31003e-05
62 *13:78 0.000288207
63 *13:79 1.31003e-05
64 *13:80 1.31003e-05
65 *13:83 1.31003e-05
66 *13:86 6.55016e-05
67 *13:89 6.55016e-05

*RES
1 *13:89 *91:A1 1.4
2 *13:86 *13:89 0.621444
3 *13:83 *92:B0 1.4
4 *13:83 *13:87 0.212143
5 *13:82 *13:86 1.4
6 *13:82 *13:85 0.220714
7 *13:80 *118:B 1.4
8 *13:79 *13:83 0.124289
9 *13:78 *13:82 1.4
10 *13:77 *13:81 0.0878571
11 *13:77 *13:80 0.124289
12 *13:76 *13:79 1.4
13 *13:72 *13:78 2.73435
14 *13:71 *13:77 1.4
15 *13:71 *13:76 1.24284
16 *13:70 *79:A 1.4
17 *13:70 *13:74 0.220714
18 *13:69 *70:B 1.4
19 *13:68 *13:72 1.4
20 *13:68 *13:71 0.248568
21 *13:66 *13:70 1.4
22 *13:64 *13:69 0.124289
23 *13:63 *13:68 0.372852
24 *13:62 *108:A 0.24857
25 *13:61 *13:66 0.372866
26 *13:59 *71:A1 1.4
27 *13:58 *13:64 0.372866
28 *13:57 *13:63 0.248568
29 *13:56 *13:62 1.4
30 *13:56 *13:61 1.4
31 *13:56 *13:60 0.220714
32 *13:55 *13:59 0.372866
33 *13:54 *13:58 1.4
34 *13:54 *13:57 1.24287
35 *13:52 *13:56 0.372866
36 *13:51 *13:55 1.4
37 *13:51 *13:54 0.870021
38 *13:50 *13 2.73435
39 *13:48 *13:52 0.124289
40 *13:47 *13:51 0.745733
41 *13:46 *13:50 0.248578
42 *13:45 *119:A 1.4
43 *13:44 *13:48 0.497155
44 *13:42 *13:47 1.4
45 *13:42 *13:46 0.745733
46 *13:41 *13:45 0.497155
47 *13:40 *13:44 1.4
48 *13:38 *72:B 1.4
49 *13:38 *13:42 0.372866
50 *13:37 *13:41 1.4
51 *13:37 *13:40 0.248575
52 *13:36 *96:B0 1.4
53 *13:35 *13:38 2.61006
54 *13:33 *13:37 1.74004
55 *13:32 *13:36 0.372866
56 *13:31 *13:35 1.4
57 *13:30 *98:A0 1.4
58 *13:29 *13:33 0.124289
59 *13:28 *13:32 1.4
60 *13:28 *13:31 0.497155
61 *13:27 *13:30 0.248569
62 *13:26 *13:29 0.99431
63 *13:25 *13:28 1.74004
64 *13:23 *13:27 1.4
65 *13:20 *13:26 0.124289
66 *13:19 *13:25 1.4
67 *13:18 *115:B 1.4
68 *13:17 *13:23 1.1186
69 *13:16 *120:B 1.4
70 *13:16 *13:21 0.220714
71 *13:15 *13:20 0.99431
72 *13:14 *13:19 1.86433
73 *13:14 *13:18 0.124289
74 *13:13 *13:17 1.4
75 *13:12 *13:16 1.4
76 *13:11 *13:15 0.124289
77 *13:10 *13:14 0.124289
78 *13:9 *13:13 2.36146
79 *13:8 *13:12 0.248578
80 *13:7 *13:11 0.124289
81 *13:6 *13:10 0.745733
82 *13:5 *13:9 1.4
83 *13:4 *13:8 0.124289
84 *13:4 *13:7 0.248578
85 *101:S0 *13:6 1.4
86 *13:3 *13:5 0.372866
87 *13:3 *13:4 0.99431
88 *13:1 *13:3 1.4
89 *13:1 *101:S0 1.4
90 *13:0 *13:1 0.220714
*END

*D_NET *14 0.00260326

*CONN
*I *83:Q O *C 23.345 11.455 *L 0 *D DFFRHQX1
*P *14 O *C 26.245 0 *L 0
*I *118:A I *C 28.855 9.715 *L 0.00162 *D NOR2XL
*I *125:A I *C 31.755 11.745 *L 0.00273 *D CLKINVX1
*I *91:A0 I *C 27.695 17.255 *L 0.00261 *D AOI31X1

*CAP
1 *14:3 0.000135116
2 *14:4 0.000214167
3 *14:5 0.000131082
4 *14:6 0.000223334
5 *14:7 0.000182111
6 *14:8 3.93009e-05
7 *14:9 0.000237328
8 *14:10 0.000143088
9 *14:11 7.86019e-05
10 *14:12 5.24013e-05
11 *14:13 0.000315302
12 *14:14 1.3008e-05
13 *14:15 7.86019e-05
14 *14:16 0.000170304
15 *14 0.000301307
16 *14:20 0.000170304
17 *14:23 6.55016e-05
18 *14:24 5.24013e-05

*RES
1 *14:24 *91:A0 1.4
2 *14:23 *14:24 0.497155
3 *14:20 *14:23 0.124289
4 *14:18 *125:A 1.4
5 *14:18 *14:21 0.220714
6 *14:16 *14:20 1.49146
7 *14:15 *118:A 1.4
8 *14:14 *14:18 1.4
9 *14:13 *14 2.85864
10 *14:12 *14:16 0.124289
11 *14:11 *14:15 0.745732
12 *14:10 *14:14 0.124284
13 *14:9 *14:13 0.124289
14 *14:8 *14:12 0.372866
15 *14:7 *14:11 1.4
16 *14:7 *14:10 1.24284
17 *14:6 *14:9 1.86433
18 *14:5 *14:8 1.4
19 *14:5 *14:7 0.497136
20 *14:4 *14:6 1.4
21 *14:4 *14:5 0.745706
22 *14:3 *14:4 1.1186
23 *14:1 *14:3 1.4
24 *14:1 *83:Q 1.4
25 *14:0 *14:1 0.220714
*END

*D_NET *15 0.0025817

*CONN
*I *88:S0 I *C 31.755 20.735 *L 0.00509 *D MXI2X1
*P *15 O *C 40.89 18.415 *L 0
*I *110:A I *C 24.795 22.185 *L 0.00591 *D NOR3X2
*I *109:A I *C 24.215 20.155 *L 0.00579 *D NAND3X2
*I *84:Q O *C 20.445 14.355 *L 0 *D DFFRHQX8

*CAP
1 *15:2 0.000377231
2 *15:4 0.000273167
3 *15:5 0.00013008
4 *15:6 3.90239e-05
5 *15:7 0.000146095
6 *15:8 2.60159e-05
7 *15:9 0.0001481
8 *15:10 9.17022e-05
9 *15:11 6.00517e-05
10 *15:12 9.17022e-05
11 *15:13 4.50388e-05
12 *15:14 0.00013008
13 *15:15 0.000104222
14 *15 0.00013008
15 *15:17 7.44446e-05
16 *15:18 5.95557e-05
17 *15:20 0.000208445
18 *15:21 0.000238223
19 *15:23 0.000134
20 *15:24 7.44446e-05

*RES
1 *15:24 *84:Q 1.4
2 *15:23 *15:24 0.621444
3 *15:21 *15:23 0.497155
4 *15:20 *109:A 1.4
5 *15:20 *15:21 1.49147
6 *15:18 *15:20 0.248578
7 *15:17 *110:A 1.4
8 *15:15 *15:18 0.248578
9 *15:15 *15:17 0.621444
10 *15:14 *15 1.24284
11 *15:13 *15:15 1.4
12 *15:12 *15:14 1.4
13 *15:11 *15:13 0.372866
14 *15:10 *15:12 0.870021
15 *15:9 *15:11 0.124289
16 *15:8 *15:10 1.4
17 *15:7 *15:9 1.24285
18 *15:6 *15:8 0.248568
19 *15:5 *15:7 0.124284
20 *15:4 *15:6 0.124284
21 *15:2 *15:5 1.11856
22 *15:2 *15:4 2.48568
23 *15:1 *88:S0 1.4
24 *15:1 *15:2 1.4
25 *15:0 *15:1 0.220714
*END

*D_NET *16 0.00314691

*CONN
*I *109:B I *C 22.765 19.865 *L 0.00562 *D NAND3X2
*I *110:B I *C 23.055 22.475 *L 0.00552 *D NOR3X2
*I *87:Q O *C 23.345 30.015 *L 0 *D DFFRHQX2
*I *108:C I *C 27.405 25.085 *L 0.00534 *D NAND3X2
*I *114:B I *C 30.015 25.375 *L 0.0028 *D NOR2X1
*I *131:A I *C 30.305 27.985 *L 0.0018 *D XOR2XL
*P *16 O *C 40.89 23.345 *L 0

*CAP
1 *16:1 5.95557e-05
2 *16:2 7.44446e-05
3 *16:3 8.93335e-05
4 *16:4 0.000134
5 *16:5 7.44446e-05
6 *16:7 0.00016069
7 *16:8 0.000299759
8 *16:9 0.000153959
9 *16:10 0.000171003
10 *16:12 0.000277847
11 *16:13 0.000106844
12 *16:14 6.37897e-05
13 *16:15 8.77077e-05
14 *16:16 6.37897e-05
15 *16:17 3.58771e-05
16 *16:18 8.99903e-05
17 *16:20 4.78361e-05
18 *16:21 0.000117903
19 *16:23 3.58771e-05
20 *16:24 9.17022e-05
21 *16:26 0.000273167
22 *16:27 0.000286175
23 *16:28 0.000182111
24 *16 0.000169103

*RES
1 *16:28 *16 1.61569
2 *16:27 *16:28 0.124284
3 *16:26 *16:27 2.60996
4 *16:24 *16:26 1.4
5 *16:23 *131:A 1.4
6 *16:21 *16:24 0.870021
7 *16:20 *16:23 0.372857
8 *16:18 *114:B 1.4
9 *16:18 *16:21 0.248577
10 *16:17 *16:20 0.124286
11 *16:16 *108:C 1.4
12 *16:15 *16:18 0.621439
13 *16:15 *16:17 0.248571
14 *16:14 *16:16 0.621439
15 *16:13 *16:15 1.4
16 *16:12 *16:14 1.4
17 *16:12 *16:13 1.11857
18 *16:10 *16:12 1.74003
19 *16:9 *87:Q 1.4
20 *16:8 *16:10 1.4
21 *16:8 *16:9 1.49141
22 *16:7 *16:8 1.24288
23 *16:5 *16:7 0.124289
24 *16:4 *110:B 1.4
25 *16:4 *16:5 0.497155
26 *16:3 *16:4 0.621444
27 *16:2 *16:3 0.124289
28 *16:1 *16:2 0.497155
29 *109:B *16:1 1.4
*END

*D_NET *17 0.00188716

*CONN
*I *130:A I *C 10.585 20.155 *L 0.00273 *D CLKINVX1
*I *76:Y O *C 13.485 20.155 *L 0 *D CLKBUFX2
*I *89:A I *C 8.845 22.185 *L 0.00259 *D MXI2X1
*P *17 O *C 0 18.995 *L 0

*CAP
1 *17:2 0.000240207
2 *17:4 0.000150129
3 *17:5 9.00776e-05
4 *17:7 0.000104222
5 *17:10 0.000104222
6 *89:A 0.000375323
7 *17:12 0.000375323
8 *17:13 0.000163778
9 *17:14 0.000163778
10 *17:15 6.00517e-05
11 *17 6.00517e-05

*RES
1 *17:15 *17 0.497155
2 *17:14 *17:15 1.4
3 *17:13 *17:14 1.36718
4 *17:12 *17:13 1.4
5 *89:A *17:12 3.10722
6 *17:10 *89:A 1.4
7 *17:7 *17:10 0.870021
8 *17:6 *17:9 0.220714
9 *17:6 *76:Y 1.4
10 *17:5 *17:7 1.4
11 *17:4 *17:6 1.4
12 *17:2 *17:5 0.745733
13 *17:2 *17:4 1.24289
14 *17:1 *130:A 1.4
15 *17:1 *17:2 1.4
16 *17:0 *17:1 0.220714
*END

*D_NET *18 0.00500401

*CONN
*I *119:B I *C 25.955 22.185 *L 0.0028 *D NOR2X1
*I *77:C I *C 25.665 16.965 *L 0.00549 *D NAND4X2
*I *108:B I *C 27.985 25.085 *L 0.00562 *D NAND3X2
*I *79:B I *C 25.375 25.375 *L 0.0028 *D NOR2X1
*I *120:A I *C 17.545 22.185 *L 0.00267 *D NAND2X1
*I *112:B I *C 18.995 17.545 *L 0.00542 *D NOR2X2
*I *128:Q O *C 17.255 30.305 *L 0 *D DFFRHQX4
*P *18 O *C 17.545 39.73 *L 0
*I *74:A I *C 14.065 27.695 *L 0.00172 *D CLKBUFX2
*I *127:A I *C 14.355 25.375 *L 0.00273 *D CLKINVX1

*CAP
1 *18:1 0.000119111
2 *18:2 0.000347278
3 *18:3 8.93335e-05
4 *18:4 5.95557e-05
5 *18:6 9.20582e-05
6 *18:7 0.000285246
7 *18:8 4.46667e-05
8 *18:9 0.000253112
9 *18:10 0.000117903
10 *18:11 0.000120103
11 *18:12 4.46667e-05
12 *18:13 0.000238223
13 *18:14 0.000117903
14 *18:15 0.000195168
15 *18:16 4.46667e-05
16 *18:19 9.00776e-05
17 *18:20 1.50129e-05
18 *18:21 2.97778e-05
19 *18:22 0.000245905
20 *18:23 7.44446e-05
21 *18:25 0.000214068
22 *18:26 4.46667e-05
23 *18:27 8.93335e-05
24 *18:28 3.84897e-05
25 *18:30 0.000208445
26 *18:31 0.000141129
27 *18:32 0.000193556
28 *18:33 0.000205278
29 *18:34 0.000136147
30 *18:37 0.000102639
31 *18:38 0.000136147
32 *18:39 0.000320748
33 *18:40 5.13196e-05
34 *18 0.000307918
35 *18:42 6.41495e-05
36 *18:44 6.9297e-05
37 *18:45 5.64671e-05

*RES
1 *18:45 *127:A 1.4
2 *18:44 *18:45 0.497149
3 *18:42 *18:44 0.124285
4 *18:40 *74:A 1.4
5 *18:40 *18:42 0.497138
6 *18:39 *18 2.98283
7 *18:38 *18:40 1.4
8 *18:37 *18:39 0.124285
9 *18:34 *18:38 1.36718
10 *18:33 *18:37 0.869992
11 *18:33 *128:Q 1.4
12 *18:32 *112:B 1.4
13 *18:31 *18:34 1.4
14 *18:31 *18:33 1.11856
15 *18:30 *18:32 1.61575
16 *18:28 *18:31 0.248569
17 *18:27 *18:30 0.124289
18 *18:26 *120:A 1.4
19 *18:25 *18:28 0.124285
20 *18:23 *18:27 0.621444
21 *18:22 *18:26 0.372866
22 *18:22 *18:25 1.74003
23 *18:21 *79:B 1.4
24 *18:20 *18:23 1.4
25 *18:19 *18:22 1.4
26 *18:16 *18:21 0.248578
27 *18:15 *18:20 0.124289
28 *18:15 *18:19 0.745733
29 *18:14 *108:B 1.4
30 *18:13 *77:C 1.4
31 *18:12 *18:16 0.124289
32 *18:11 *18:15 0.745733
33 *18:10 *18:14 1.1186
34 *18:9 *18:13 1.98862
35 *18:8 *18:12 0.248578
36 *18:7 *18:11 0.248578
37 *18:6 *18:10 1.4
38 *18:4 *18:9 0.124289
39 *18:3 *18:8 0.124289
40 *18:2 *18:7 2.11291
41 *18:2 *18:6 0.86999
42 *18:1 *119:B 1.4
43 *18:1 *18:4 0.372866
44 *18:1 *18:3 0.621444
45 *18:1 *18:2 1.4
46 *18:0 *18:1 0.220714
*END

*D_NET *19 0.00201815

*CONN
*I *98:A1 I *C 10.585 27.695 *L 0.00544 *D AOI32X2
*P *19 O *C 0 25.375 *L 0
*I *93:A I *C 14.935 25.375 *L 0.00259 *D MXI2X1
*I *129:Y O *C 15.805 27.115 *L 0 *D CLKINVX3

*CAP
1 *19:4 0.000107787
2 *19:6 0.000107787
3 *19:7 0.000570491
4 *19:8 6.00517e-05
5 *19 0.000525453
6 *19:10 0.000150129
7 *19:11 0.000150129
8 *19:12 6.00517e-05
9 *19:13 4.50388e-05
10 *19:14 5.64671e-05
11 *19:15 9.49568e-05
12 *19:18 6.41495e-05
13 *19:19 2.56598e-05

*RES
1 *19:19 *129:Y 1.4
2 *19:18 *19:19 0.248569
3 *19:15 *19:18 0.372854
4 *19:14 *93:A 1.4
5 *19:14 *19:16 0.220714
6 *19:14 *19:15 0.497149
7 *19:13 *19:14 1.4
8 *19:12 *19:13 0.372866
9 *19:11 *19:12 0.124289
10 *19:10 *19:11 1.1186
11 *19:8 *19:10 0.124289
12 *19:7 *19 4.35011
13 *19:7 *19:8 0.372866
14 *19:6 *19:7 1.4
15 *19:4 *19:6 0.994287
16 *19:2 *19:5 0.220714
17 *19:2 *19:4 1.4
18 *19:1 *98:A1 1.4
19 *19:1 *19:2 1.4
20 *19:0 *19:1 0.220714
*END

*D_NET *20 0.00505403

*CONN
*I *132:B I *C 20.155 25.375 *L 0.0028 *D AND2X4
*I *121:A I *C 21.315 16.965 *L 0.00547 *D NAND2X2
*I *77:B I *C 23.925 17.255 *L 0.00577 *D NAND4X2
*I *116:A I *C 18.125 20.155 *L 0.00263 *D NOR2X1
*I *81:B I *C 16.965 20.155 *L 0.0028 *D NOR2X1
*I *123:B I *C 12.325 19.575 *L 0.00542 *D NOR2X2
*P *20 O *C 0 17.835 *L 0
*I *75:A I *C 12.615 14.645 *L 0.00172 *D CLKBUFX2
*I *113:A I *C 10.585 14.935 *L 0.00263 *D NOR2X1
*I *94:Q O *C 9.715 12.035 *L 0 *D DFFRHQX4

*CAP
1 *20:4 4.46667e-05
2 *20:6 5.95557e-05
3 *20:7 0.000193556
4 *20:8 0.000193556
5 *20:9 0.000119111
6 *20:10 0.000104222
7 *20:11 0.000105091
8 *20:12 0.000165142
9 *20:13 6.00517e-05
10 *20:14 0.000105091
11 *20:15 0.000104222
12 *20:16 7.50647e-05
13 *20:17 8.93335e-05
14 *20:18 0.000104222
15 *20:19 0.000120103
16 *20:20 0.000119111
17 *20:22 0.000105091
18 *20:23 4.46667e-05
19 *20:24 2.97778e-05
20 *20:25 6.00517e-05
21 *20:26 2.97778e-05
22 *20:27 4.46667e-05
23 *20:29 0.000210181
24 *20:30 2.97778e-05
25 *20:32 0.000195168
26 *20:34 8.93335e-05
27 *20:35 2.97778e-05
28 *20:36 0.000134
29 *20:38 0.000180155
30 *20:39 8.93335e-05
31 *20:40 0.00061553
32 *20:41 0.000104222
33 *20:42 0.000148889
34 *20 0.000435375
35 *20:44 8.93335e-05
36 *20:45 0.000148889
37 *20:47 4.50388e-05
38 *20:48 9.00776e-05
39 *20:49 0.000148889
40 *113:A 4.50388e-05
41 *20:51 0.000148889

*RES
1 *20:51 *94:Q 1.4
2 *20:49 *20:51 1.24289
3 *20:48 *113:A 0.372866
4 *20:48 *20:49 1.4
5 *20:47 *20:48 0.372866
6 *20:45 *20:47 1.4
7 *20:44 *75:A 1.4
8 *20:42 *20:45 1.24289
9 *20:41 *20:44 0.745733
10 *20:40 *20 3.60437
11 *20:40 *20:42 1.4
12 *20:39 *20:41 0.124289
13 *20:38 *20:40 1.49147
14 *20:36 *20:39 0.621444
15 *20:36 *20:38 1.4
16 *20:35 *123:B 1.4
17 *20:34 *20:36 0.497155
18 *20:34 *20:35 0.248578
19 *20:32 *20:34 1.4
20 *20:30 *81:B 1.4
21 *20:29 *20:32 1.61575
22 *20:27 *116:A 1.4
23 *20:26 *20:30 0.248578
24 *20:25 *20:29 0.124289
25 *20:24 *77:B 1.4
26 *20:23 *20:27 0.372866
27 *20:22 *20:26 1.4
28 *20:22 *20:25 0.372866
29 *20:20 *20:24 0.248578
30 *20:19 *20:23 1.4
31 *20:19 *20:22 0.497155
32 *20:18 *121:A 1.4
33 *20:17 *20:20 0.745733
34 *20:16 *20:19 0.497155
35 *20:15 *20:18 0.870021
36 *20:14 *20:17 1.4
37 *20:13 *20:16 0.124289
38 *20:12 *20:15 1.4
39 *20:12 *20:14 0.870021
40 *20:11 *20:13 0.372866
41 *20:11 *20:12 0.497155
42 *20:10 *20:11 1.4
43 *20:9 *20:10 0.870021
44 *20:8 *20:9 0.124289
45 *20:7 *20:8 1.49147
46 *20:6 *20:7 0.124289
47 *20:4 *20:6 0.372866
48 *20:2 *20:5 0.220714
49 *20:2 *20:4 1.4
50 *20:1 *132:B 1.4
51 *20:1 *20:2 1.4
52 *20:0 *20:1 0.220714
*END

*D_NET *21 0.00289688

*CONN
*I *124:A I *C 16.965 14.935 *L 0.00273 *D CLKINVX1
*P *21 O *C 19.285 0 *L 0
*I *80:Y O *C 25.955 9.715 *L 0 *D BUFX2

*CAP
1 *21:0 0.000208445
2 *21:1 0.000208445
3 *21:2 0.000208445
4 *21:3 0.000193556
5 *21:4 4.46667e-05
6 *21:5 0.000150129
7 *21:6 5.95557e-05
8 *21:7 0.000450388
9 *21:8 2.97778e-05
10 *21:9 0.000315272
11 *21:10 0.000327556
12 *21:12 1.50129e-05
13 *21 0.000327556
14 *21:14 0.000134
15 *21:15 0.000134
16 *21:16 4.50388e-05
17 *80:Y 4.50388e-05

*RES
1 *21:16 *80:Y 0.372866
2 *21:15 *21:16 1.4
3 *21:14 *21:15 1.1186
4 *21:12 *21:14 1.4
5 *21:10 *21 2.73435
6 *21:9 *21:12 0.124289
7 *21:8 *124:A 1.4
8 *21:7 *21:10 1.4
9 *21:7 *21:9 2.48578
10 *21:6 *21:8 0.248578
11 *21:5 *21:7 1.24289
12 *21:4 *21:6 0.248578
13 *21:3 *21:5 1.4
14 *21:2 *21:4 0.124289
15 *21:1 *21:3 1.61575
16 *21:0 *21:2 1.61575
17 *21:0 *21:1 0.124289
*END

*D_NET *22 0.00386546

*CONN
*I *117:B I *C 20.155 22.765 *L 0.00542 *D NOR2X2
*I *77:D I *C 24.795 16.965 *L 0.00524 *D NAND4X2
*I *122:B I *C 23.635 25.085 *L 0.00534 *D NAND2X2
*I *115:A I *C 15.805 20.155 *L 0.00263 *D NOR2X1
*I *126:Q O *C 23.925 27.405 *L 0 *D DFFRX4
*I *113:B I *C 10.875 14.935 *L 0.0028 *D NOR2X1

*CAP
1 *22:1 1.48889e-05
2 *22:2 1.48889e-05
3 *22:4 3.00259e-05
4 *22:5 3.00259e-05
5 *22:6 8.93335e-05
6 *22:7 5.95557e-05
7 *22:8 5.95557e-05
8 *22:9 0.000148889
9 *22:10 0.000178667
10 *22:11 0.000148889
11 *22:12 0.000178667
12 *22:13 5.44081e-05
13 *22:14 0.000104222
14 *22:15 3.95192e-05
15 *22:16 8.93335e-05
16 *22:17 0.000173278
17 *22:18 0.000465401
18 *22:19 0.000173278
19 *22:20 0.000270233
20 *22:21 0.000450388
21 *22:22 9.70158e-05
22 *22:24 0.00025522
23 *22:25 0.000178667
24 *22:26 5.13196e-05
25 *22:27 8.41859e-05
26 *22:30 0.000104222
27 *22:31 0.000178667
28 *22:32 3.84897e-05
29 *22:34 0.000104222

*RES
1 *22:34 *113:B 1.4
2 *22:32 *126:Q 1.4
3 *22:31 *115:A 1.4
4 *22:30 *22:34 0.870021
5 *22:27 *122:B 1.4
6 *22:26 *22:32 0.372854
7 *22:25 *22:31 1.49147
8 *22:24 *22:30 1.4
9 *22:23 *77:D 1.4
10 *22:23 *22:28 0.220714
11 *22:22 *22:27 0.745722
12 *22:22 *22:26 0.124285
13 *22:21 *22:25 1.4
14 *22:21 *22:24 2.11291
15 *22:20 *22:23 1.4
16 *22:19 *22:22 1.4
17 *22:18 *22:21 1.61575
18 *22:18 *22:20 2.2372
19 *22:17 *22:19 1.74004
20 *22:16 *22:18 1.4
21 *22:15 *22:17 1.4
22 *22:14 *22:16 0.745733
23 *22:13 *22:15 0.372856
24 *22:12 *22:14 0.124289
25 *22:11 *22:13 0.124289
26 *22:10 *22:12 1.36718
27 *22:9 *22:11 1.1186
28 *22:8 *22:10 0.124289
29 *22:7 *22:9 0.124289
30 *22:6 *22:8 0.372866
31 *22:6 *22:7 0.372866