*SPEF "IEEE 1481-1998"
*DESIGN "mealy"
*DATE "Mon Jun 22 11:40:31 2026"
*VENDOR "Cadence Design Systems, Inc."
*PROGRAM "Innovus"
*VERSION "21.15-s110_1"
*DESIGN_FLOW "PIN_CAP NONE" "NAME_SCOPE LOCAL"
*DIVIDER /
*DELIMITER :
*BUS_DELIMITER []
*T_UNIT 1 NS
*C_UNIT 1 PF
*R_UNIT 1 OHM
*L_UNIT 1 HENRY

// MMMC spef file for corner 'rc_corner'

*NAME_MAP

*1 clk
*2 rst
*3 din
*4 dout_1001
*5 dout_1100
*6 dout_1101
*7 FE_DBTN2_state_2
*8 FE_DBTN1_state_1
*9 FE_DBTN0_state_0
*10 state[2]
*11 state[1]
*12 state[0]
*13 UNCONNECTED
*14 UNCONNECTED0
*15 UNCONNECTED1
*16 n_0
*17 n_1
*18 n_3
*19 n_4
*20 n_5
*21 n_7
*22 n_8
*23 n_9
*24 n_11
*25 n_12
*26 n_13
*27 n_14
*28 n_15
*29 FE_DBTC2_state_2
*30 FE_DBTC1_state_1
*31 FE_DBTC0_state_0
*32 dout_1101_reg
*33 g708__2398
*34 g710__5107
*35 state_reg\[1\]
*36 g709__6260
*37 g711__4319
*38 g712__8428
*39 g713__5526
*40 g714__6783
*41 g715__3680
*42 g717__1617
*43 g718__2802
*44 g716__1705
*45 g722
*46 g719
*47 state_reg\[0\]
*48 state_reg\[2\]
*49 dout_1001_reg
*50 dout_1100_reg


*PORTS

*1 I *C 21.025 31.9
*2 I *C 25.955 0
*3 I *C 0 15.805
*4 O *C 22.185 31.9
*5 O *C 22.475 0
*6 O *C 20.735 31.9


*D_NET *1 0.00333007

*CONN
*I *47:CK I *C 18.125 17.545 *L 0.00167 *D DFFRX4
*I *32:CK I *C 20.155 22.475 *L 0.00172 *D DFFRHQX1
*P *1 I *C 21.025 31.9 *L 0
*I *35:CK I *C 20.155 12.035 *L 0.00171 *D DFFRHQX4
*I *50:CK I *C 23.345 14.355 *L 0.0018 *D DFFRX2
*I *49:CK I *C 22.765 22.475 *L 0.00169 *D DFFRXL
*I *48:CK I *C 22.475 9.425 *L 0.00171 *D DFFRHQX4

*CAP
1 *1:2 0.000117604
2 *1:3 2.61341e-05
3 *1:4 0.000117604
4 *47:CK 2.61341e-05
5 *1:6 0.00013752
6 *1:7 5.50082e-05
7 *1:8 0.000123768
8 *1:9 0.000123768
9 *1:10 5.50082e-05
10 *1:11 0.000123768
11 *1:12 6.87602e-05
12 *1:13 9.62643e-05
13 *1:14 0.000117604
14 *1:15 6.87602e-05
15 *1:16 0.000472951
16 *1:17 0.000117604
17 *1:18 0.000123768
18 *1:19 0.000425877
19 *1:20 0.000117604
20 *1:22 2.75041e-05
21 *1:23 0.000165025
22 *1 3.54385e-05
23 *1:25 0.000117604
24 *1:26 2.75041e-05
25 *1:27 8.25123e-05
26 *1:31 6.87602e-05
27 *1:34 5.50082e-05
28 *1:35 0.000117604
29 *1:36 0.000117604

*RES
1 *1:37 *48:CK 1.4
2 *1:37 *1:38 0.220714
3 *1:36 *1:37 1.4
4 *1:35 *1:36 1.11855
5 *1:34 *1:35 1.4
6 *1:31 *1:34 0.497155
7 *1:29 *49:CK 1.4
8 *1:29 *1:32 0.220714
9 *1:27 *1:31 0.124289
10 *1:26 *50:CK 1.4
11 *1:25 *1:29 1.4
12 *1:23 *35:CK 1.4
13 *1:23 *1:27 0.621444
14 *1:22 *1:26 0.248578
15 *1:20 *1:25 1.11855
16 *1:19 *1 0.372857
17 *1:18 *1:23 0.870021
18 *1:17 *1:22 1.4
19 *1:16 *32:CK 1.4
20 *1:16 *1:20 1.4
21 *1:16 *1:19 3.8529
22 *1:15 *1:18 0.248578
23 *1:14 *1:17 1.11855
24 *1:13 *1:16 0.745732
25 *1:12 *1:15 0.372866
26 *1:12 *1:14 1.4
27 *1:11 *1:13 0.124289
28 *1:10 *1:12 0.248578
29 *1:9 *1:11 0.99431
30 *1:8 *1:10 0.248578
31 *1:7 *1:9 0.124289
32 *1:6 *1:8 0.870021
33 *1:6 *1:7 0.372866
34 *1:4 *1:6 1.4
35 *1:3 *47:CK 0.248568
36 *1:2 *1:4 1.11855
37 *1:1 *1:3 1.4
38 *1:1 *1:2 1.4
39 *1:0 *1:1 0.03
*END

*D_NET *2 0.000852627

*CONN
*P *2 I *C 25.955 0 *L 0
*I *46:A I *C 25.965 9.4875 *L 0.00163 *D INVXL

*CAP
1 *2 0.000426314
2 *2:1 0.000426314

*RES
1 *2:1 *46:A 1.4
2 *2 *2:1 3.85295
*END

*D_NET *3 0.00241509

*CONN
*I *40:B I *C 11.745 16.965 *L 0.00278 *D NAND4X1
*I *45:A I *C 8.845 16.965 *L 0.00273 *D CLKINVX1
*I *44:A I *C 9.135 20.155 *L 0.00263 *D NOR2X1
*P *3 I *C 0 15.805 *L 0
*I *38:A I *C 12.905 9.715 *L 0.00591 *D NOR3X2

*CAP
1 *3:1 9.62643e-05
2 *3:2 0.000156805
3 *3:3 0.000110016
4 *3:5 0.000156805
5 *3:6 6.87602e-05
6 *3:7 0.000151273
7 *3:8 9.62643e-05
8 *3:9 0.000365878
9 *3:10 0.000151273
10 *3:11 6.87602e-05
11 *45:A 2.61341e-05
12 *3:13 0.000339744
13 *3:14 3.92012e-05
14 *3:15 4.12561e-05
15 *3:16 5.50082e-05
16 *44:A 3.92012e-05
17 *3:18 0.00013752
18 *3:19 5.50082e-05
19 *3:20 0.00013752
20 *3:21 1.30671e-05
21 *3:22 5.50082e-05
22 *3 1.30671e-05
23 *3:24 4.12561e-05

*RES
1 *3:24 *38:A 1.4
2 *3:22 *3:24 0.372866
3 *3:21 *3 0.124284
4 *3:20 *3:22 0.124289
5 *3:19 *3:21 1.4
6 *3:18 *3:20 1.1186
7 *3:16 *3:19 0.497155
8 *3:15 *3:18 0.124289
9 *3:14 *44:A 0.372852
10 *3:13 *3:16 1.4
11 *3:11 *3:15 0.248578
12 *3:10 *3:14 1.4
13 *3:9 *3:13 3.23138
14 *3:9 *45:A 0.248568
15 *3:8 *3:11 0.372866
16 *3:7 *3:10 1.36718
17 *3:7 *3:9 1.4
18 *3:6 *3:8 0.497155
19 *3:5 *3:7 1.4
20 *3:3 *3:6 0.124289
21 *3:2 *3:5 1.49141
22 *3:1 *40:B 1.4
23 *3:1 *3:3 0.870021
24 *3:1 *3:2 1.4
25 *3:0 *3:1 0.220714
*END

*D_NET *4 0.000753373

*CONN
*I *49:Q O *C 22.185 23.055 *L 0 *D DFFRXL
*P *4 O *C 22.185 31.9 *L 0

*CAP
1 *4:1 0.000376686
2 *4 0.000376686

*RES
1 *4:1 *4 3.72861
2 *49:Q *4:1 1.4
*END

*D_NET *5 0.00143021

*CONN
*P *5 O *C 22.475 0 *L 0
*I *50:Q O *C 22.475 14.355 *L 0 *D DFFRX2

*CAP
1 *5 2.75041e-05
2 *5:1 0.000577586
3 *5:2 0.000577586
4 *5:3 0.00013752
5 *5:4 0.000110016

*RES
1 *5:4 *50:Q 1.4
2 *5:3 *5:4 0.99431
3 *5:2 *5:3 0.248578
4 *5:1 *5:2 4.97155
5 *5 *5:1 0.248578
*END

*D_NET *6 0.000725868

*CONN
*I *32:Q O *C 20.735 21.895 *L 0 *D DFFRHQX1
*P *6 O *C 20.735 31.9 *L 0

*CAP
1 *6:5 0.000362934
2 *6 0.000362934

*RES
1 *6:5 *6 3.60432
2 *6:3 *6:5 1.4
3 *6:3 *6:4 0.220714
4 *6:1 *6:3 1.4
5 *6:1 *32:Q 1.4
6 *6:0 *6:1 0.220714
*END

*D_NET *7 0.00133537

*CONN
*I *36:B0 I *C 11.745 22.475 *L 0.00277 *D AOI21X1
*I *40:D I *C 12.615 16.675 *L 0.00282 *D NAND4X1
*I *29:Y O *C 16.3025 16.965 *L 0 *D INVX1
*I *39:D I *C 16.965 19.865 *L 0.00283 *D NOR4X1

*CAP
1 *7:1 2.75041e-05
2 *7:2 0.000178777
3 *7:3 0.000165025
4 *7:4 9.62643e-05
5 *7:5 0.000165025
6 *7:6 8.25123e-05
7 *7:7 2.75041e-05
8 *7:8 2.75041e-05
9 *7:10 0.000117604
10 *29:Y 0.000117604
11 *7:12 2.75041e-05
12 *7:13 5.50082e-05
13 *7:14 0.00013752
14 *7:15 0.000110016

*RES
1 *7:15 *39:D 1.4
2 *7:14 *7:15 0.99431
3 *7:13 *7:14 0.248578
4 *7:12 *7:13 0.248578
5 *29:Y *7:12 1.4
6 *7:10 *29:Y 1.11855
7 *7:8 *7:10 1.4
8 *7:7 *40:D 1.4
9 *7:6 *7:8 0.248578
10 *7:5 *7:7 0.248578
11 *7:5 *7:6 0.497155
12 *7:4 *7:5 0.745732
13 *7:3 *7:4 0.124289
14 *7:2 *7:3 1.36718
15 *7:1 *7:2 0.248578
16 *36:B0 *7:1 1.4
*END

*D_NET *8 0.00116487

*CONN
*I *30:Y O *C 9.135 10.005 *L 0 *D CLKINVX2
*I *38:B I *C 11.165 9.425 *L 0.00552 *D NOR3X2
*I *43:B I *C 12.035 12.035 *L 0.00167 *D NAND2XL
*I *42:B I *C 15.805 15.225 *L 0.00284 *D NAND2X1

*CAP
1 *8:1 5.50082e-05
2 *8:2 6.87602e-05
3 *8:3 5.50082e-05
4 *8:4 6.87602e-05
5 *8:5 6.87602e-05
6 *8:7 0.00013752
7 *8:8 0.000151273
8 *8:9 5.50082e-05
9 *8:11 0.000169872
10 *8:12 0.000169872
11 *8:13 8.25123e-05
12 *8:14 8.25123e-05

*RES
1 *8:14 *42:B 1.4
2 *8:13 *8:14 0.745732
3 *8:12 *8:13 1.4
4 *8:11 *8:12 1.61569
5 *8:9 *8:11 1.4
6 *8:8 *43:B 1.4
7 *8:8 *8:9 0.497155
8 *8:7 *8:8 0.870021
9 *8:5 *8:7 0.372866
10 *8:4 *38:B 1.4
11 *8:4 *8:5 0.248578
12 *8:3 *8:4 0.372866
13 *8:2 *8:3 0.124289
14 *8:1 *8:2 0.497155
15 *30:Y *8:1 1.4
*END

*D_NET *9 0.00233521

*CONN
*I *41:B I *C 9.715 14.645 *L 0.00167 *D NAND2XL
*I *36:A0 I *C 11.165 22.185 *L 0.00265 *D AOI21X1
*I *31:Y O *C 13.5675 20.155 *L 0 *D CLKINVX1
*I *42:A I *C 15.515 14.935 *L 0.00267 *D NAND2X1
*I *37:C I *C 16.385 12.035 *L 0.00278 *D NOR3X1

*CAP
1 *9:1 0.000206281
2 *9:2 0.000357553
3 *9:3 0.000169872
4 *9:4 0.000151273
5 *9:5 0.000169872
6 *9:6 6.53353e-05
7 *9:7 9.62643e-05
8 *36:A0 6.53353e-05
9 *9:9 5.50082e-05
10 *9:10 8.25123e-05
11 *9:12 0.000192529
12 *9:13 0.000288793
13 *9:14 0.000233785
14 *9:15 5.22682e-05
15 *9:16 9.62643e-05
16 *42:A 5.22682e-05

*RES
1 *9:16 *37:C 1.4
2 *9:15 *42:A 0.497135
3 *9:14 *9:16 0.870021
4 *9:13 *9:15 1.4
5 *9:13 *9:14 1.24289
6 *9:12 *9:13 1.36718
7 *9:10 *9:12 0.372866
8 *9:9 *31:Y 1.4
9 *9:7 *9:10 0.372866
10 *9:7 *9:9 0.497155
11 *9:6 *36:A0 0.621419
12 *9:5 *9:7 1.4
13 *9:4 *9:6 1.4
14 *9:3 *9:5 1.61569
15 *9:2 *9:4 1.36718
16 *9:2 *9:3 1.4
17 *9:1 *9:2 1.86433
18 *41:B *9:1 1.4
*END

*D_NET *10 0.00235734

*CONN
*I *33:A0 I *C 20.155 14.935 *L 0.00265 *D AOI21X1
*I *29:A I *C 16.675 16.965 *L 0.00273 *D INVX1
*I *37:A I *C 16.965 11.745 *L 0.00259 *D NOR3X1
*I *48:Q O *C 21.895 9.425 *L 0 *D DFFRHQX4
*I *43:A I *C 12.615 12.035 *L 0.00157 *D NAND2XL
*I *38:C I *C 11.745 9.135 *L 0.00525 *D NOR3X2

*CAP
1 *10:2 0.000117604
2 *10:4 0.000117604
3 *10:5 0.000288793
4 *10:6 9.62643e-05
5 *10:7 0.000220033
6 *10:8 3.92012e-05
7 *10:9 6.87602e-05
8 *29:A 3.92012e-05
9 *10:11 0.000418146
10 *10:12 4.12561e-05
11 *10:13 0.00022214
12 *10:14 0.000196006
13 *10:16 6.87602e-05
14 *10:17 6.87602e-05
15 *10:18 6.87602e-05
16 *10:19 5.50082e-05
17 *10:20 9.62643e-05
18 *10:23 8.25123e-05
19 *10:24 2.61341e-05
20 *38:C 2.61341e-05

*RES
1 *10:24 *38:C 0.248568
2 *10:23 *10:24 1.4
3 *10:20 *10:23 0.745732
4 *10:19 *43:A 1.4
5 *10:18 *48:Q 1.4
6 *10:17 *10:20 0.124289
7 *10:17 *10:19 0.497155
8 *10:16 *10:18 0.621444
9 *10:14 *10:17 1.4
10 *10:13 *10:16 1.4
11 *10:12 *37:A 1.4
12 *10:11 *10:14 1.86426
13 *10:11 *10:13 2.11283
14 *10:9 *10:12 0.372866
15 *10:9 *10:11 1.4
16 *10:8 *29:A 0.372852
17 *10:7 *10:9 0.248578
18 *10:6 *10:8 1.4
19 *10:5 *10:7 1.74004
20 *10:5 *10:6 0.870021
21 *10:4 *10:5 1.4
22 *10:2 *10:4 1.11855
23 *10:1 *33:A0 1.4
24 *10:1 *10:2 1.4
25 *10:0 *10:1 0.220714
*END

*D_NET *11 0.0029638

*CONN
*I *44:B I *C 9.425 20.155 *L 0.0028 *D NOR2X1
*I *40:A I *C 11.455 16.965 *L 0.0027 *D NAND4X1
*I *30:A I *C 9.715 9.715 *L 0.00521 *D CLKINVX2
*I *37:B I *C 16.675 11.745 *L 0.00272 *D NOR3X1
*I *39:C I *C 17.255 19.865 *L 0.00274 *D NOR4X1
*I *35:Q O *C 20.735 12.035 *L 0 *D DFFRHQX4

*CAP
1 *11:2 3.92012e-05
2 *11:4 3.92012e-05
3 *11:5 0.00013752
4 *11:6 0.000371305
5 *11:7 0.000261289
6 *11:8 5.22682e-05
7 *11:9 0.000287475
8 *11:10 0.00013752
9 *40:A 5.22682e-05
10 *11:12 0.000326677
11 *11:13 0.000110016
12 *11:14 5.22682e-05
13 *11:15 0.000206281
14 *11:17 0.000117604
15 *11:18 0.000233785
16 *11:21 0.000117604
17 *11:22 0.000178777
18 *11:23 5.22682e-05
19 *11:24 0.000151273
20 *11:25 3.92012e-05

*RES
1 *11:27 *11:29 0.220714
2 *11:27 *35:Q 1.4
3 *11:25 *11:27 1.4
4 *11:24 *39:C 1.4
5 *11:23 *11:25 0.372852
6 *11:22 *11:24 1.36718
7 *11:21 *11:23 0.124284
8 *11:18 *11:22 0.248578
9 *11:17 *11:21 0.994271
10 *11:15 *37:B 1.4
11 *11:15 *11:19 0.03
12 *11:15 *11:18 1.86433
13 *11:14 *11:17 0.124284
14 *11:13 *30:A 1.4
15 *11:12 *11:15 1.4
16 *11:12 *11:14 0.372852
17 *11:10 *11:13 0.99431
18 *11:9 *11:12 2.73425
19 *11:8 *40:A 0.497135
20 *11:7 *11:10 0.248578
21 *11:7 *11:9 1.4
22 *11:6 *11:8 1.4
23 *11:6 *11:7 2.11291
24 *11:5 *11:6 1.24289
25 *11:4 *11:5 1.4
26 *11:2 *11:4 0.372852
27 *11:1 *44:B 1.4
28 *11:1 *11:2 1.4
29 *11:0 *11:1 0.220714
*END

*D_NET *12 0.0020636

*CONN
*I *39:B I *C 17.835 19.865 *L 0.00273 *D NOR4X1
*I *47:Q O *C 25.375 16.965 *L 0 *D DFFRX4
*I *31:A I *C 13.195 20.155 *L 0.00273 *D CLKINVX1
*I *40:C I *C 12.325 16.675 *L 0.00274 *D NAND4X1

*CAP
1 *12:1 3.92337e-05
2 *12:2 0.000564261
3 *39:B 2.20558e-05
4 *12:4 0.000377657
5 *12:5 0.000199044
6 *12:6 8.87573e-05
7 *12:7 7.46416e-05
8 *12:8 9.36351e-05
9 *12:9 7.93794e-05
10 *47:Q 2.20558e-05
11 *12:11 9.92721e-05
12 *12:12 7.62338e-05
13 *12:13 6.83271e-05
14 *12:14 8.89394e-05
15 *31:A 4.97611e-05
16 *12:16 9.82895e-05
17 *40:C 2.20558e-05

*RES
1 *12:16 *40:C 1.4
2 *12:14 *12:16 0.745714
3 *12:13 *31:A 0.497143
4 *12:12 *12:14 0.124286
5 *12:11 *12:13 1.4
6 *12:11 *12:12 0.621429
7 *12:9 *12:11 1.4
8 *12:8 *47:Q 1.4
9 *12:7 *12:9 0.621429
10 *12:6 *12:8 0.745714
11 *12:5 *12:7 0.124286
12 *12:4 *12:6 1.4
13 *12:2 *12:5 1.86429
14 *12:2 *12:4 3.60429
15 *12:1 *39:B 1.4
16 *12:1 *12:2 1.4
17 *12:0 *12:1 0.220714
*END

*D_NET *16 0.000404342

*CONN
*I *44:Y O *C 9.425 20.735 *L 0 *D NOR2X1
*I *36:A1 I *C 11.455 22.185 *L 0.00278 *D AOI21X1

*CAP
1 *44:Y 7.84024e-05
2 *16:1 7.84024e-05
3 *16:2 0.000123768
4 *16:3 0.000123768

*RES
1 *16:3 *36:A1 1.4
2 *16:2 *16:3 1.1186
3 *16:1 *16:2 1.4
4 *44:Y *16:1 0.745703
*END

*D_NET *17 0.000192529

*CONN
*I *43:Y O *C 12.035 11.455 *L 0 *D NAND2XL
*I *34:A1 I *C 11.745 14.355 *L 0.00166 *D OAI21XL

*CAP
1 *17:1 9.62643e-05
2 *17:2 9.62643e-05

*RES
1 *17:2 *34:A1 1.4
2 *17:1 *17:2 0.870021
3 *43:Y *17:1 1.4
*END

*D_NET *18 0.00045661

*CONN
*I *42:Y O *C 15.805 14.355 *L 0 *D NAND2X1
*I *33:A1 I *C 19.865 14.935 *L 0.00278 *D AOI21X1

*CAP
1 *42:Y 0.000104536
2 *18:1 0.000104536
3 *18:2 2.75041e-05
4 *18:3 9.62643e-05
5 *18:4 9.62643e-05
6 *18:5 2.75041e-05

*RES
1 *18:5 *33:A1 1.4
2 *18:4 *18:5 0.248578
3 *18:3 *18:4 0.621444
4 *18:2 *18:3 0.248578
5 *18:1 *18:2 1.4
6 *42:Y *18:1 0.994271
*END

*D_NET *19 0.000130671

*CONN
*I *41:Y O *C 9.715 15.225 *L 0 *D NAND2XL
*I *34:A0 I *C 11.455 14.645 *L 0.00164 *D OAI21XL

*CAP
1 *41:Y 6.53353e-05
2 *34:A0 6.53353e-05

*RES
1 *41:Y *34:A0 0.621419
*END

*D_NET *20 0.000301175

*CONN
*I *34:B0 I *C 12.325 14.645 *L 0.00169 *D OAI21XL
*I *40:Y O *C 11.745 17.545 *L 0 *D NAND4X1

*CAP
1 *20:1 4.12561e-05
2 *20:2 0.00013752
3 *20:3 9.62643e-05
4 *20:4 1.30671e-05
5 *40:Y 1.30671e-05

*RES
1 *20:4 *40:Y 0.124284
2 *20:3 *20:4 1.4
3 *20:2 *20:3 0.870021
4 *20:1 *20:2 0.372866
5 *34:B0 *20:1 1.4
*END

*D_NET *21 0.00178798

*CONN
*I *41:A I *C 9.135 14.645 *L 0.00157 *D NAND2XL
*I *45:Y O *C 9.2175 16.965 *L 0 *D CLKINVX1
*I *33:B0 I *C 19.575 14.645 *L 0.00277 *D AOI21X1
*I *39:A I *C 18.415 20.155 *L 0.00273 *D NOR4X1

*CAP
1 *21:1 4.12561e-05
2 *21:2 0.000110016
3 *21:3 6.87602e-05
4 *21:4 0.000470414
5 *21:6 0.000470414
6 *21:7 0.000261289
7 *21:8 0.000220033
8 *21:9 4.12561e-05
9 *21:10 5.22682e-05
10 *39:A 5.22682e-05

*RES
1 *21:10 *39:A 0.497135
2 *21:9 *33:B0 1.4
3 *21:8 *21:10 1.4
4 *21:7 *21:9 0.372866
5 *21:7 *21:8 1.98862
6 *21:6 *21:7 1.4
7 *21:4 *21:6 4.47422
8 *21:3 *45:Y 1.4
9 *21:2 *21:4 1.4
10 *21:2 *21:3 0.621444
11 *21:1 *21:2 0.372866
12 *41:A *21:1 1.4
*END

*D_NET *22 0.00107748

*CONN
*I *39:Y O *C 16.965 20.445 *L 0 *D NOR4X1
*I *49:D I *C 28.275 22.185 *L 0.00168 *D DFFRXL

*CAP
1 *22:1 4.12561e-05
2 *22:2 4.12561e-05
3 *22:3 0.000461599
4 *22:4 0.000461599
5 *22:5 3.58858e-05
6 *22:6 3.58858e-05

*RES
1 *22:6 *49:D 1.4
2 *22:5 *22:6 0.372857
3 *22:4 *22:5 1.4
4 *22:3 *22:4 4.47426
5 *22:2 *22:3 1.4
6 *22:1 *22:2 0.372866
7 *39:Y *22:1 1.4
*END

*D_NET *23 0.00059002

*CONN
*I *38:Y O *C 11.455 8.845 *L 0 *D NOR3X2
*I *48:D I *C 14.355 9.715 *L 0.0023 *D DFFRHQX4

*CAP
1 *23:0 0.000143738
2 *23:1 5.50082e-05
3 *23:2 0.000143738
4 *23:3 5.50082e-05
5 *23:4 9.62643e-05
6 *23:6 9.62643e-05

*RES
1 *23:6 *48:D 1.4
2 *23:4 *23:6 0.870021
3 *23:3 *38:Y 1.4
4 *23:2 *23:4 1.4
5 *23:1 *23:3 0.497155
6 *23:0 *23:2 1.36712
7 *23:0 *23:1 1.4
*END

*D_NET *24 0.00130858

*CONN
*I *37:Y O *C 16.675 11.455 *L 0 *D NOR3X1
*I *35:D I *C 28.275 11.745 *L 0.0023 *D DFFRHQX4

*CAP
1 *24:2 2.61341e-05
2 *24:3 5.22682e-05
3 *37:Y 2.61341e-05
4 *24:5 6.53353e-05
5 *24:6 0.00022214
6 *24:7 0.00022214
7 *24:8 0.000317861
8 *24:9 0.000304794
9 *24:10 3.58858e-05
10 *24:11 3.58858e-05

*RES
1 *24:11 *35:D 1.4
2 *24:10 *24:11 0.372857
3 *24:9 *24:10 1.4
4 *24:8 *24:9 2.98285
5 *24:7 *24:8 0.124284
6 *24:6 *24:7 1.98854
7 *24:5 *24:6 0.124284
8 *24:3 *24:5 0.497135
9 *24:2 *37:Y 0.248568
10 *24:1 *24:3 1.4
11 *24:1 *24:2 1.4
12 *24:0 *24:1 0.03
*END

*D_NET *25 0.000162285

*CONN
*I *36:Y O *C 12.325 22.185 *L 0 *D AOI21X1
*I *32:D I *C 14.065 22.185 *L 0.00232 *D DFFRHQX1

*CAP
1 *36:Y 2.61341e-05
2 *25:1 2.61341e-05
3 *25:2 5.50082e-05
4 *25:3 5.50082e-05

*RES
1 *25:3 *32:D 1.4
2 *25:2 *25:3 0.497155
3 *25:1 *25:2 1.4
4 *36:Y *25:1 0.248568
*END

*D_NET *26 0.00146966

*CONN
*I *34:Y O *C 12.615 15.225 *L 0 *D OAI21XL
*I *50:D I *C 28.565 14.645 *L 0.00166 *D DFFRX2

*CAP
1 *26:2 5.22682e-05
2 *26:3 0.000143738
3 *34:Y 5.22682e-05
4 *26:5 0.000156805
5 *26:6 0.000196006
6 *26:7 0.000196006
7 *26:8 0.00034282
8 *26:9 0.000329753

*RES
1 *26:10 *50:D 1.4
2 *26:10 *26:11 0.220714
3 *26:9 *26:10 1.4
4 *26:8 *26:9 3.23142
5 *26:7 *26:8 0.124284
6 *26:6 *26:7 1.73997
7 *26:5 *26:6 0.124284
8 *26:3 *26:5 1.36712
9 *26:2 *34:Y 0.497135
10 *26:1 *26:3 1.4
11 *26:1 *26:2 1.4
12 *26:0 *26:1 0.220714
*END

*D_NET *27 0.000247537

*CONN
*I *33:Y O *C 18.995 14.935 *L 0 *D AOI21X1
*I *47:D I *C 19.285 17.255 *L 0.00169 *D DFFRX4

*CAP
1 *27:1 2.75041e-05
2 *27:2 4.12561e-05
3 *27:3 9.62643e-05
4 *27:4 8.25123e-05

*RES
1 *27:4 *47:D 1.4
2 *27:3 *27:4 0.745732
3 *27:2 *27:3 0.124289
4 *27:1 *27:2 0.248578
5 *33:Y *27:1 1.4
*END

*D_NET *28 0.00314317

*CONN
*I *32:RN I *C 18.415 22.475 *L 0.00443 *D DFFRHQX1
*I *49:RN I *C 23.925 22.475 *L 0.00352 *D DFFRXL
*I *47:RN I *C 21.895 16.965 *L 0.00609 *D DFFRX4
*I *35:RN I *C 22.185 11.455 *L 0.00675 *D DFFRHQX4
*I *48:RN I *C 20.445 10.005 *L 0.00675 *D DFFRHQX4
*I *50:RN I *C 26.825 14.645 *L 0.00372 *D DFFRX2
*I *46:Y O *C 26.3275 9.425 *L 0 *D INVXL

*CAP
1 *28:1 8.25123e-05
2 *28:2 8.25123e-05
3 *28:3 0.000248274
4 *28:4 0.000248274
5 *28:5 8.25123e-05
6 *28:6 0.000343801
7 *28:7 0.000261289
8 *28:10 0.000151273
9 *28:11 0.000261289
10 *28:12 3.92012e-05
11 *28:13 0.000151273
12 *28:14 5.22682e-05
13 *28:15 1.3752e-05
14 *28:16 6.87602e-05
15 *28:17 0.000156805
16 *28:19 8.25123e-05
17 *28:20 0.000156805
18 *28:21 6.87602e-05
19 *28:22 4.93298e-05
20 *28:23 2.75041e-05
21 *28:24 3.62627e-05
22 *28:26 0.000215315
23 *28:27 3.58858e-05
24 *28:28 0.000179429
25 *28:30 2.37834e-05
26 *46:Y 2.37834e-05

*RES
1 *28:30 *46:Y 0.248578
2 *28:28 *28:30 1.4
3 *28:27 *50:RN 1.4
4 *28:26 *28:28 1.86429
5 *28:26 *28:27 0.372857
6 *28:24 *28:26 1.4
7 *28:23 *48:RN 1.4
8 *28:22 *28:24 0.372864
9 *28:21 *28:23 0.248578
10 *28:20 *28:22 0.124284
11 *28:19 *28:21 0.372866
12 *28:17 *28:20 1.36712
13 *28:16 *28:19 0.372866
14 *28:15 *35:RN 1.4
15 *28:14 *28:17 0.124284
16 *28:13 *28:16 0.248578
17 *28:13 *28:15 0.124289
18 *28:12 *28:14 0.372852
19 *28:11 *28:13 0.99431
20 *28:11 *28:12 1.4
21 *28:10 *28:11 1.36718
22 *47:RN *28:10 1.4
23 *28:7 *47:RN 1.4
24 *28:6 *49:RN 1.4
25 *28:6 *28:7 2.36149
26 *28:5 *28:6 0.745732
27 *28:4 *28:5 1.4
28 *28:3 *28:4 2.36139
29 *28:2 *28:3 1.4
30 *28:1 *28:2 0.745732
31 *32:RN *28:1 1.4
*END

