*SPEF "IEEE 1481-1998"
*DESIGN "TrafficLight"
*DATE "Wed Jun 24 13:40:29 2026"
*VENDOR "Cadence Design Systems, Inc."
*PROGRAM "Innovus"
*VERSION "21.15-s110_1"
*DESIGN_FLOW "PIN_CAP NONE" "NAME_SCOPE LOCAL"
*DIVIDER /
*DELIMITER :
*BUS_DELIMITER []
*T_UNIT 1 NS
*C_UNIT 1 PF
*R_UNIT 1 OHM
*L_UNIT 1 HENRY

// MMMC spef file for corner 'rc_corner'

*NAME_MAP

*1 FE_RN_5_0
*2 FE_RN_4_0
*3 FE_RN_3_0
*4 FE_OCPN17_n_269
*5 FE_OCPN16_state_0
*6 FE_OCPN15_count_1
*7 FE_OCPN14_n_1421
*8 FE_OCPN13_n_937
*9 FE_OCPN12_FE_DBTN1_state_2
*10 FE_OCPN11_n_1567
*11 FE_OCPN10_FE_DBTN3_state_5
*12 FE_OCPN9_n_1565
*13 FE_OCPN8_state_3
*14 FE_OCPN7_n_1564
*15 FE_OCPN6_n_404
*16 FE_OCPN5_n_1569
*17 FE_RN_1
*18 FE_OCPN7_n_88
*19 FE_OCPN6_n_88
*20 FE_OCPN5_n_88
*21 FE_OCPN3_n_88
*22 FE_OCPN2_n_88
*23 FE_OCPN1_n_1875
*24 FE_RN_0_0
*25 FE_OFN0_n_88
*26 FE_DBTN3_state_5
*27 FE_DBTN2_state_4
*28 FE_DBTN1_state_2
*29 FE_DBTN0_n_88
*30 clk
*31 rst
*32 LED_NS[2]
*33 LED_NS[1]
*34 LED_NS[0]
*35 LED_WE[2]
*36 LED_WE[1]
*37 LED_WE[0]
*38 count[3]
*39 count[2]
*40 count[1]
*41 count[0]
*42 state[5]
*43 state[4]
*44 state[3]
*45 state[2]
*46 state[1]
*47 state[0]
*48 UNCONNECTED
*49 UNCONNECTED0
*50 UNCONNECTED1
*51 UNCONNECTED2
*52 UNCONNECTED3
*53 UNCONNECTED4
*54 n_19
*55 n_20
*56 n_44
*57 n_45
*58 n_52
*59 n_53
*60 n_57
*61 n_71
*62 n_85
*63 n_88
*64 n_91
*65 n_229
*66 n_231
*67 n_269
*68 n_394
*69 n_404
*70 n_424
*71 n_426
*72 n_428
*73 n_438
*74 n_480
*75 n_522
*76 n_717
*77 n_719
*78 n_820
*79 n_821
*80 n_904
*81 n_926
*82 n_927
*83 n_936
*84 n_937
*85 n_948
*86 n_979
*87 n_990
*88 n_1263
*89 n_1264
*90 n_1315
*91 n_1316
*92 n_1318
*93 n_1331
*94 n_1332
*95 n_1333
*96 n_1350
*97 n_1351
*98 n_1359
*99 n_1372
*100 n_1373
*101 n_1375
*102 n_1381
*103 n_1404
*104 n_1408
*105 n_1415
*106 n_1417
*107 n_1418
*108 n_1419
*109 n_1420
*110 n_1421
*111 n_1536
*112 n_1562
*113 n_1563
*114 n_1564
*115 n_1565
*116 n_1566
*117 n_1567
*118 n_1568
*119 n_1569
*120 n_1571
*121 n_1583
*122 n_1585
*123 n_1586
*124 n_1587
*125 n_1591
*126 n_1637
*127 n_1638
*128 n_1640
*129 n_1642
*130 n_1643
*131 n_1644
*132 n_1646
*133 n_1647
*134 n_1648
*135 n_1650
*136 n_1652
*137 n_1653
*138 n_1824
*139 n_1825
*140 n_1826
*141 n_1866
*142 n_1867
*143 n_1868
*144 n_1869
*145 n_1872
*146 n_1875
*147 n_1876
*148 n_1886
*149 n_1888
*150 n_1889
*151 n_1890
*152 FE_RC_12_0
*153 FE_RC_11_0
*154 FE_RC_10_0
*155 FE_RC_9_0
*156 FE_RC_8_0
*157 FE_RC_7_0
*158 FE_OCPC17_n_269
*159 FE_OCPC16_state_0
*160 FE_OCPC15_count_1
*161 FE_OCPC14_n_1421
*162 FE_OCPC13_n_937
*163 FE_OCPC12_FE_DBTN1_state_2
*164 FE_OCPC11_n_1567
*165 FE_OCPC10_FE_DBTN3_state_5
*166 FE_OCPC9_n_1565
*167 FE_OCPC8_state_3
*168 FE_OCPC7_n_1564
*169 FE_OCPC6_n_404
*170 FE_OCPC5_n_1569
*171 g169_dup
*172 FE_RC_6_0
*173 FE_RC_5_0
*174 FE_OCPC11_n_88
*175 FE_OCPC10_n_88
*176 FE_OCPC9_n_88
*177 FE_OCPC8_n_88
*178 FE_OCPC7_n_88
*179 FE_OCPC6_n_88
*180 FE_OCPC5_n_88
*181 FE_OCPC3_n_1875
*182 FE_RC_1_0
*183 FE_RC_0_0
*184 FE_OFC1_rst
*185 FE_DBTC3_state_5
*186 FE_DBTC2_state_4
*187 count_reg\[2\]
*188 count_reg\[3\]
*189 count_reg\[1\]
*190 count_reg\[0\]
*191 state_reg\[2\]
*192 state_reg\[5\]
*193 state_reg\[1\]
*194 g13617__8428
*195 g13619__1881
*196 LED_NS_reg\[2\]
*197 LED_WE_reg\[0\]
*198 LED_NS_reg\[0\]
*199 LED_NS_reg\[1\]
*200 LED_WE_reg\[2\]
*201 LED_WE_reg\[1\]
*202 g13641__6161
*203 g13643__6417
*204 g13650
*205 g13653__4319
*206 g13664__5122
*207 g13676
*208 g13674__1666
*209 g13687__8246
*210 state_reg\[4\]
*211 g13864
*212 g13865
*213 g13901
*214 g126
*215 g43
*216 g167
*217 g165
*218 g169
*219 g30
*220 g14022
*221 g14070
*222 g14073
*223 g72
*224 g74
*225 g24
*226 g32
*227 g33
*228 g39
*229 g40
*230 g14175
*231 fopt
*232 g14195
*233 g14344
*234 g14345
*235 g14367
*236 g14368
*237 g13622__14370
*238 g88
*239 g89
*240 g14386
*241 g14389
*242 g14397
*243 g14402
*244 g14403
*245 g14404
*246 g14406
*247 state_reg\[3\]
*248 g82
*249 g81
*250 g76
*251 g14427
*252 g21
*253 g23
*254 g22
*255 g14428
*256 g14478
*257 g50
*258 g51
*259 g52
*260 g49
*261 g53
*262 g54
*263 g14481
*264 g34
*265 g42
*266 g20
*267 g14491
*268 g103
*269 g107
*270 g106
*271 g69
*272 g71
*273 g90
*274 g91
*275 g29
*276 g31
*277 g14494
*278 g14496
*279 g14607
*280 g14608
*281 g14609
*282 g67
*283 g14641
*284 g68
*285 g14642
*286 g14644
*287 g14645
*288 g14647
*289 g14654
*290 g14656
*291 g14658
*292 g13636__14659
*293 state_reg\[0\]


*PORTS

*30 I *C 29.435 50.17
*31 I *C 39.005 0
*32 O *C 0 20.445
*33 O *C 41.035 0
*34 O *C 44.225 0
*35 O *C 0 41.325
*36 O *C 0 32.335
*37 O *C 0 37.555


*D_NET *1 0.000405509

*CONN
*I *154:Y O *C 16.675 30.595 *L 0 *D CLKAND2X2
*I *155:B I *C 20.735 30.305 *L 0.00534 *D NAND2X2

*CAP
1 *1:2 2.70339e-05
2 *1:3 5.40678e-05
3 *154:Y 2.70339e-05
4 *1:5 6.75848e-05
5 *1:6 0.000121653
6 *1:7 0.000108136

*RES
1 *1:8 *155:B 1.4
2 *1:8 *1:9 0.220714
3 *1:7 *1:8 1.4
4 *1:6 *1:7 0.994268
5 *1:5 *1:6 0.124284
6 *1:3 *1:5 0.497134
7 *1:2 *154:Y 0.248567
8 *1:1 *1:3 1.4
9 *1:1 *1:2 1.4
10 *1:0 *1:1 0.220714
*END

*D_NET *2 0.000709051

*CONN
*I *154:A I *C 16.095 30.305 *L 0.00228 *D CLKAND2X2
*I *153:Y O *C 17.6275 35.815 *L 0 *D CLKINVX1

*CAP
1 *2:0 5.46847e-05
2 *2:1 4.10135e-05
3 *2:2 0.000123041
4 *2:3 8.11018e-05
5 *2:4 0.000109369
6 *2:5 8.11018e-05
7 *2:7 0.000109369
8 *2:8 0.000109369

*RES
1 *2:8 *153:Y 1.4
2 *2:7 *2:8 0.994268
3 *2:5 *2:7 1.4
4 *2:4 *154:A 1.4
5 *2:3 *2:5 0.745701
6 *2:2 *2:4 0.994268
7 *2:1 *2:3 1.4
8 *2:0 *2:2 0.124284
9 *2:0 *2:1 0.372851
*END

*D_NET *3 0.000508942

*CONN
*I *157:A I *C 29.435 16.965 *L 0.00547 *D NAND2X2
*I *156:Y O *C 32.625 19.575 *L 0 *D OR2X1

*CAP
1 *3:2 0.000140175
2 *3:4 0.000140175
3 *3:5 7.14353e-05
4 *3:6 8.57224e-05
5 *3:7 4.28612e-05
6 *3:8 2.85741e-05

*RES
1 *3:8 *156:Y 1.4
2 *3:7 *3:8 0.248565
3 *3:6 *3:7 0.124283
4 *3:5 *3:6 0.621413
5 *3:4 *3:5 1.4
6 *3:2 *3:4 1.24283
7 *3:1 *157:A 1.4
8 *3:1 *3:2 1.4
9 *3:0 *3:1 0.220714
*END

*D_NET *4 8.41048e-05

*CONN
*I *245:A I *C 29.435 25.375 *L 0.00259 *D MXI2X1
*I *158:Y O *C 30.305 25.375 *L 0 *D CLKBUFX2

*CAP
1 *245:A 4.20524e-05
2 *158:Y 4.20524e-05

*RES
1 *245:A *158:Y 0.37285
*END

*D_NET *5 0.000701593

*CONN
*I *159:Y O *C 23.925 9.715 *L 0 *D CLKBUFX2
*I *219:B I *C 26.245 14.645 *L 0.00167 *D NAND2XL

*CAP
1 *5:1 6.99809e-05
2 *5:2 6.99809e-05
3 *5:3 0.000109371
4 *5:4 0.000109371
5 *5:5 0.000171445
6 *5:6 0.000171445

*RES
1 *5:6 *219:B 1.4
2 *5:5 *5:6 1.49139
3 *5:4 *5:5 1.4
4 *5:3 *5:4 0.994307
5 *5:2 *5:3 1.4
6 *5:1 *5:2 0.621413
7 *159:Y *5:1 1.4
*END

*D_NET *6 0.000364454

*CONN
*I *160:Y O *C 37.845 20.155 *L 0 *D CLKBUFX2
*I *239:A I *C 41.615 20.155 *L 0.00547 *D NAND2X2

*CAP
1 *6:3 0.000182227
2 *6:4 0.000182227

*RES
1 *6:5 *239:A 1.4
2 *6:5 *6:6 0.03
3 *6:4 *6:5 1.4
4 *6:3 *6:4 1.61568
5 *6:1 *6:3 1.4
6 *6:1 *160:Y 1.4
7 *6:0 *6:1 0.220714
*END

*D_NET *7 0.00161753

*CONN
*I *161:Y O *C 30.015 22.185 *L 0 *D BUFX2
*I *221:S0 I *C 26.825 19.575 *L 0.00371 *D MX2X1
*I *226:B0 I *C 25.085 27.695 *L 0.00169 *D OAI21XL
*I *243:B I *C 25.665 30.885 *L 0.00284 *D NAND2X1

*CAP
1 *7:3 0.00011214
2 *7:4 0.000209708
3 *7:5 9.75685e-05
4 *7:6 0.000128584
5 *7:7 1.39962e-05
6 *7:8 0.000142871
7 *7:9 0.000195946
8 *7:10 1.42871e-05
9 *7:11 0.000195946
10 *7:13 9.61858e-05
11 *7:14 0.000218901
12 *7:15 0.000164054
13 *7:17 2.73424e-05

*RES
1 *7:17 *243:B 1.4
2 *7:15 *7:17 0.248567
3 *7:14 *226:B0 1.4
4 *7:14 *7:15 1.24284
5 *7:13 *7:14 0.745701
6 *7:11 *7:13 0.124283
7 *7:10 *221:S0 1.4
8 *7:9 *7:11 1.61567
9 *7:8 *7:10 0.124283
10 *7:7 *7:9 0.124283
11 *7:6 *7:8 1.11854
12 *7:5 *7:7 1.4
13 *7:4 *7:6 1.4
14 *7:4 *7:5 0.869992
15 *7:3 *7:4 0.994268
16 *7:1 *7:3 1.4
17 *7:1 *161:Y 1.4
18 *7:0 *7:1 0.03
*END

*D_NET *8 0.000735776

*CONN
*I *232:A I *C 10.585 30.595 *L 0.00162 *D NOR2XL
*I *162:Y O *C 12.905 30.595 *L 0 *D CLKBUFX2
*I *197:D I *C 13.485 35.525 *L 0.0016 *D TLATNXL

*CAP
1 *8:2 0.000108136
2 *8:4 0.000108136
3 *8:5 2.73424e-05
4 *8:7 5.46847e-05
5 *8:9 0.00023241
6 *8:10 0.000205068

*RES
1 *8:10 *197:D 1.4
2 *8:9 *8:10 1.86425
3 *8:7 *8:9 0.248567
4 *8:5 *8:8 0.220714
5 *8:5 *8:7 0.248567
6 *8:5 *162:Y 1.4
7 *8:4 *8:5 1.4
8 *8:2 *8:4 0.994268
9 *8:1 *232:A 1.4
10 *8:1 *8:2 1.4
11 *8:0 *8:1 0.220714
*END

*D_NET *9 0.00106074

*CONN
*I *163:Y O *C 24.215 14.935 *L 0 *D CLKBUFX2
*I *235:A1 I *C 30.015 19.865 *L 0.00274 *D OAI21X1

*CAP
1 *9:1 0.000153958
2 *9:2 0.000153958
3 *9:3 6.82413e-05
4 *9:4 9.55378e-05
5 *9:5 0.000251022
6 *9:6 0.000223726
7 *9:7 5.71483e-05
8 *9:8 5.71483e-05

*RES
1 *9:8 *235:A1 1.4
2 *9:7 *9:8 0.497131
3 *9:6 *9:7 1.4
4 *9:5 *9:6 1.98854
5 *9:4 *9:5 0.248577
6 *9:3 *9:4 0.621444
7 *9:2 *9:3 1.4
8 *9:1 *9:2 1.36711
9 *163:Y *9:1 1.4
*END

*D_NET *10 0.000643128

*CONN
*I *213:A I *C 22.475 20.155 *L 0.00521 *D CLKINVX2
*I *164:Y O *C 24.215 25.375 *L 0 *D CLKBUFX2

*CAP
1 *10:1 4.19885e-05
2 *10:2 0.00029392
3 *10:3 0.000265927
4 *10:4 1.39962e-05
5 *10:5 1.36483e-05
6 *164:Y 1.36483e-05

*RES
1 *10:5 *164:Y 0.124289
2 *10:4 *10:5 1.4
3 *10:3 *10:4 0.124283
4 *10:2 *10:3 2.23709
5 *10:1 *10:2 0.372848
6 *213:A *10:1 1.4
*END

*D_NET *11 0.00139094

*CONN
*I *237:A1 I *C 26.245 25.085 *L 0.00274 *D OAI21X1
*I *165:Y O *C 22.475 14.935 *L 0 *D CLKBUFX2

*CAP
1 *11:2 2.74811e-05
2 *11:4 2.74811e-05
3 *11:5 4.19885e-05
4 *11:6 5.59847e-05
5 *11:7 0.00029392
6 *11:8 0.00029392
7 *11:9 5.59847e-05
8 *11:10 4.19885e-05
9 *11:11 0.000150131
10 *11:12 0.000150131
11 *11:13 0.000125966
12 *11:14 0.000125966

*RES
1 *11:14 *165:Y 1.4
2 *11:13 *11:14 1.11854
3 *11:12 *11:13 1.4
4 *11:11 *11:12 1.36718
5 *11:10 *11:11 1.4
6 *11:9 *11:10 0.372848
7 *11:8 *11:9 0.124283
8 *11:7 *11:8 2.48565
9 *11:6 *11:7 0.124283
10 *11:5 *11:6 0.372848
11 *11:4 *11:5 1.4
12 *11:2 *11:4 0.248575
13 *11:1 *237:A1 1.4
14 *11:1 *11:2 1.4
15 *11:0 *11:1 0.220714
*END

*D_NET *12 0.000163779

*CONN
*I *227:A I *C 13.775 25.375 *L 0.00547 *D NAND2X2
*I *166:Y O *C 14.645 25.665 *L 0 *D BUFX3

*CAP
1 *12:0 4.09448e-05
2 *12:1 5.4593e-05
3 *227:A 1.36483e-05
4 *12:3 4.09448e-05
5 *166:Y 1.36483e-05

*RES
1 *12:3 *166:Y 0.124289
2 *12:1 *12:3 0.248577
3 *12:0 *227:A 0.124289
4 *12:0 *12:1 0.248577
*END

*D_NET *13 0.000957395

*CONN
*I *167:Y O *C 23.055 32.625 *L 0 *D CLKBUFX2
*I *206:B I *C 28.565 30.885 *L 0.00284 *D NAND2X1
*I *195:B0 I *C 30.305 32.625 *L 0.0053 *D OAI21X2

*CAP
1 *13:0 2.73424e-05
2 *13:1 2.73424e-05
3 *13:2 0.000263957
4 *13:4 0.000350096
5 *13:5 8.61383e-05
6 *13:6 5.78625e-05
7 *13:7 4.33969e-05
8 *13:8 5.78625e-05
9 *13:9 4.33969e-05

*RES
1 *13:9 *195:B0 1.4
2 *13:8 *206:B 1.4
3 *13:7 *13:9 0.372866
4 *13:6 *13:8 0.497155
5 *13:5 *13:7 1.4
6 *13:4 *13:6 1.4
7 *13:4 *13:5 0.7457
8 *13:2 *13:4 2.36139
9 *13:1 *167:Y 1.4
10 *13:0 *13:2 1.4
11 *13:0 *13:1 0.248567
*END

*D_NET *14 0.000355451

*CONN
*I *168:Y O *C 20.155 27.405 *L 0 *D CLKBUFX2
*I *155:A I *C 20.155 30.595 *L 0.00547 *D NAND2X2

*CAP
1 *14:1 8.20271e-05
2 *14:2 9.56983e-05
3 *14:3 8.20271e-05
4 *14:4 8.20271e-05
5 *14:5 1.36712e-05

*RES
1 *14:5 *155:A 1.4
2 *14:4 *14:5 0.124284
3 *14:3 *14:4 0.621418
4 *14:2 *14:3 0.124284
5 *14:1 *14:2 0.745701
6 *168:Y *14:1 1.4
*END

*D_NET *15 0.00116338

*CONN
*I *169:Y O *C 22.185 30.595 *L 0 *D CLKBUFX2
*I *228:B I *C 11.745 30.595 *L 0.00272 *D NOR3X1

*CAP
1 *15:3 1.3517e-05
2 *15:4 5.40678e-05
3 *15:5 5.40678e-05
4 *15:6 0.000229788
5 *15:7 0.000229788
6 *15:8 0.000175721
7 *15:9 0.000175721
8 *15:10 8.11018e-05
9 *15:11 6.75848e-05
10 *15:12 4.10135e-05
11 *15:13 4.10135e-05

*RES
1 *15:13 *228:B 1.4
2 *15:12 *15:13 0.372851
3 *15:11 *15:12 1.4
4 *15:10 *15:11 0.621418
5 *15:9 *15:10 0.124284
6 *15:8 *15:9 1.4914
7 *15:7 *15:8 0.124284
8 *15:6 *15:7 1.98854
9 *15:5 *15:6 0.124284
10 *15:4 *15:5 0.372851
11 *15:3 *15:4 0.124284
12 *15:1 *15:3 1.4
13 *15:1 *169:Y 1.4
14 *15:0 *15:1 0.220714
*END

*D_NET *16 0.000466137

*CONN
*I *170:Y O *C 22.475 25.375 *L 0 *D CLKBUFX2
*I *272:B I *C 22.765 27.695 *L 0.00534 *D NAND2X2
*I *226:A0 I *C 24.215 27.695 *L 0.00164 *D OAI21XL

*CAP
1 *16:1 6.91684e-05
2 *16:2 8.28396e-05
3 *16:3 2.73424e-05
4 *16:4 8.20271e-05
5 *16:5 2.73424e-05
6 *16:6 8.20271e-05
7 *16:8 5.46847e-05
8 *16:9 1.36712e-05
9 *16:10 1.3517e-05
10 *226:A0 1.3517e-05

*RES
1 *16:10 *226:A0 0.124284
2 *16:9 *16:10 1.4
3 *16:8 *16:9 0.124284
4 *16:6 *16:8 0.372851
5 *16:5 *272:B 1.4
6 *16:4 *16:6 0.372851
7 *16:4 *16:5 0.248567
8 *16:3 *16:4 0.124284
9 *16:2 *16:3 0.124284
10 *16:1 *16:2 0.621415
11 *170:Y *16:1 1.4
*END

*D_NET *17 0.000846379

*CONN
*I *182:B I *C 15.225 27.695 *L 0.00534 *D NAND2X2
*I *171:Y O *C 14.935 35.235 *L 0 *D NAND2X1

*CAP
1 *17:0 5.40678e-05
2 *17:1 0.000191397
3 *182:B 5.40678e-05
4 *17:3 0.000218739
5 *17:4 0.000109369
6 *17:5 9.56983e-05
7 *17:6 6.83559e-05
8 *17:7 5.46847e-05

*RES
1 *17:7 *171:Y 1.4
2 *17:6 *17:7 0.497134
3 *17:5 *17:6 0.124284
4 *17:4 *17:5 0.745701
5 *17:3 *17:4 0.248567
6 *17:1 *17:3 1.73997
7 *17:0 *182:B 0.497134
8 *17:0 *17:1 1.4
*END

*D_NET *18 0.000590891

*CONN
*I *239:B I *C 42.195 19.865 *L 0.00534 *D NAND2X2
*I *174:Y O *C 37.0575 20.155 *L 0 *D INVX1

*CAP
1 *18:1 1.42871e-05
2 *18:2 1.42871e-05
3 *18:4 0.000238297
4 *18:5 0.000238297
5 *18:6 2.85741e-05
6 *18:7 4.28612e-05
7 *18:8 1.42871e-05

*RES
1 *18:8 *174:Y 1.4
2 *18:7 *18:8 0.124283
3 *18:6 *18:7 0.248565
4 *18:5 *18:6 1.4
5 *18:4 *18:5 2.11282
6 *18:2 *18:4 1.4
7 *18:1 *239:B 1.4
8 *18:1 *18:2 0.124283
9 *18:0 *18:1 0.212143
*END

*D_NET *19 0.000376106

*CONN
*I *175:Y O *C 32.9975 35.815 *L 0 *D INVX1
*I *224:B I *C 33.785 32.915 *L 0.00534 *D NAND2X2

*CAP
1 *19:0 8.67937e-05
2 *19:1 4.33969e-05
3 *19:2 0.000144656
4 *19:4 0.000101259

*RES
1 *19:4 *224:B 1.4
2 *19:2 *19:4 0.870021
3 *19:1 *175:Y 1.4
4 *19:0 *19:2 0.372866
5 *19:0 *19:1 0.372866
*END

*D_NET *20 0.000260381

*CONN
*I *274:B I *C 30.885 36.105 *L 0.00284 *D NAND2X1
*I *176:Y O *C 32.1275 35.815 *L 0 *D INVX1

*CAP
1 *20:1 2.89313e-05
2 *20:2 8.67938e-05
3 *20:3 0.000101259
4 *20:4 4.33969e-05

*RES
1 *20:4 *176:Y 1.4
2 *20:3 *20:4 0.372866
3 *20:2 *20:3 0.497155
4 *20:1 *20:2 0.248577
5 *274:B *20:1 1.4
*END

*D_NET *21 0.000517267

*CONN
*I *177:Y O *C 27.115 32.335 *L 0 *D CLKINVX2
*I *195:A1 I *C 28.565 33.205 *L 0.00533 *D OAI21X2
*I *194:A0 I *C 31.465 32.625 *L 0.00271 *D OAI21X1

*CAP
1 *21:2 2.87128e-05
2 *21:3 4.30692e-05
3 *177:Y 2.87128e-05
4 *21:5 0.000129207
5 *21:6 0.000100495
6 *21:7 2.89313e-05
7 *21:8 4.30692e-05
8 *21:9 2.89313e-05
9 *21:10 2.87128e-05
10 *21:14 2.87128e-05
11 *194:A0 2.87128e-05

*RES
1 *21:14 *194:A0 0.248567
2 *21:12 *21:14 1.4
3 *21:12 *21:13 0.220714
4 *21:10 *21:12 1.4
5 *21:9 *195:A1 1.4
6 *21:8 *21:10 0.248567
7 *21:7 *21:9 0.248577
8 *21:6 *21:8 0.124283
9 *21:5 *21:7 1.4
10 *21:5 *21:6 0.7457
11 *21:3 *21:5 0.37285
12 *21:2 *177:Y 0.248567
13 *21:1 *21:3 1.4
14 *21:1 *21:2 1.4
15 *21:0 *21:1 0.220714
*END

*D_NET *22 0.000570404

*CONN
*I *178:Y O *C 29.5175 14.935 *L 0 *D INVX1
*I *157:B I *C 30.015 17.255 *L 0.00534 *D NAND2X2
*I *235:A0 I *C 29.725 20.155 *L 0.00271 *D OAI21X1

*CAP
1 *178:Y 2.80349e-05
2 *22:1 2.80349e-05
3 *22:2 0.000114297
4 *22:3 0.000171445
5 *22:4 7.14353e-05
6 *22:6 8.57224e-05
7 *22:7 7.14353e-05

*RES
1 *22:7 *235:A0 1.4
2 *22:6 *22:7 0.621413
3 *22:4 *22:6 0.124283
4 *22:3 *157:B 1.4
5 *22:3 *22:4 0.497131
6 *22:2 *22:3 0.994261
7 *22:1 *22:2 1.4
8 *178:Y *22:1 0.248567
*END

*D_NET *23 0.00362885

*CONN
*I *181:Y O *C 14.355 22.185 *L 0 *D BUFX6
*I *286:B1 I *C 32.335 22.475 *L 0.0053 *D AOI22X2
*I *221:A I *C 27.115 19.865 *L 0.0017 *D MX2X1
*I *271:C I *C 26.825 27.695 *L 0.00534 *D NAND3X2
*I *250:A I *C 31.755 16.965 *L 0.00273 *D CLKINVX1
*I *234:B I *C 32.335 27.115 *L 0.00284 *D NAND2X1

*CAP
1 *23:3 0.000546484
2 *23:4 0.000826833
3 *23:5 0.000280349
4 *23:6 0.000285741
5 *23:7 0.000171445
6 *23:8 0.000214306
7 *23:9 0.000114297
8 *23:10 0.000142871
9 *23:11 0.000157158
10 *23:12 0.000115279
11 *23:13 2.85741e-05
12 *23:14 0.000114297
13 *23:16 0.000128584
14 *23:17 0.000100992
15 *23:19 0.000114564
16 *23:20 0.000100009
17 *23:22 0.000114743
18 *23:24 4.33969e-05
19 *23:25 2.89313e-05

*RES
1 *23:25 *234:B 1.4
2 *23:24 *23:25 0.248577
3 *23:22 *23:24 0.124289
4 *23:20 *250:A 1.4
5 *23:19 *23:22 0.869988
6 *23:17 *271:C 1.4
7 *23:16 *23:20 0.869979
8 *23:14 *23:19 0.124283
9 *23:13 *221:A 1.4
10 *23:12 *23:17 0.870012
11 *23:11 *23:16 0.248565
12 *23:10 *286:B1 1.4
13 *23:10 *23:14 0.869979
14 *23:9 *23:13 0.248565
15 *23:8 *23:12 0.124283
16 *23:7 *23:11 1.11854
17 *23:7 *23:10 0.372848
18 *23:6 *23:9 0.745696
19 *23:6 *23:8 1.73996
20 *23:5 *23:7 1.4
21 *23:4 *23:6 1.4
22 *23:4 *23:5 2.48567
23 *23:3 *23:4 4.97154
24 *23:1 *23:3 1.4
25 *23:1 *181:Y 1.4
26 *23:0 *23:1 0.220714
*END

*D_NET *24 0.000489387

*CONN
*I *182:Y O *C 14.645 27.985 *L 0 *D NAND2X2
*I *183:B I *C 18.415 30.305 *L 0.00534 *D NAND2X2

*CAP
1 *24:1 6.83559e-05
2 *24:2 6.83559e-05
3 *24:3 0.000121653
4 *24:4 0.000121653
5 *24:5 5.46847e-05
6 *24:6 5.46847e-05

*RES
1 *24:6 *183:B 1.4
2 *24:5 *24:6 0.497134
3 *24:4 *24:5 1.4
4 *24:3 *24:4 1.11855
5 *24:2 *24:3 1.4
6 *24:1 *24:2 0.621418
7 *182:Y *24:1 1.4
*END

*D_NET *25 0.00623431

*CONN
*I *240:A0 I *C 24.77 32.9875 *L 0.00161 *D OAI211XL
*I *177:A I *C 26.535 32.625 *L 0.00521 *D CLKINVX2
*I *176:A I *C 31.755 35.815 *L 0.00273 *D INVX1
*I *237:A0 I *C 25.955 25.375 *L 0.00271 *D OAI21X1
*I *289:B I *C 36.105 35.525 *L 0.00534 *D NAND2X2
*I *236:B I *C 37.845 32.915 *L 0.00534 *D NAND2X2
*I *175:A I *C 32.625 35.815 *L 0.00273 *D INVX1
*I *179:Y O *C 24.505 19.575 *L 0 *D CLKINVX6
*I *174:A I *C 36.685 20.155 *L 0.00273 *D INVX1
*I *290:B I *C 37.555 22.475 *L 0.00534 *D NAND2X2
*I *292:B I *C 40.745 27.115 *L 0.00284 *D NAND2X1
*I *291:A1 I *C 42.195 27.695 *L 0.00278 *D OAI211X1

*CAP
1 *25:1 3.92337e-05
2 *25:2 0.000106437
3 *240:A0 2.20558e-05
4 *25:4 0.000346436
5 *25:5 0.000313087
6 *25:6 0.000235558
7 *25:7 4.28788e-05
8 *25:8 0.000313087
9 *25:9 0.000226563
10 *25:10 4.77566e-05
11 *25:11 5.65269e-05
12 *25:12 0.000300991
13 *25:13 9.42804e-05
14 *177:A 2.20558e-05
15 *25:15 5.61769e-05
16 *25:16 4.33511e-05
17 *25:17 9.56973e-05
18 *25:18 0.000128504
19 *25:19 8.08592e-05
20 *25:20 8.143e-05
21 *25:21 4.28788e-05
22 *25:22 4.77566e-05
23 *25:23 5.14016e-05
24 *25:24 0.000238811
25 *25:25 8.2818e-05
26 *25:26 4.42668e-05
27 *176:A 2.20558e-05
28 *25:28 3.85512e-05
29 *25:29 0.000178587
30 *237:A0 2.20558e-05
31 *289:B 1.8566e-05
32 *236:B 1.8566e-05
33 *25:33 3.49062e-05
34 *25:34 6.3781e-05
35 *175:A 2.20558e-05
36 *25:36 7.30806e-05
37 *179:Y 2.20558e-05
38 *25:38 2.99342e-05
39 *25:40 0.000524567
40 *25:41 0.000520404
41 *25:42 3.01932e-05
42 *25:43 6.48647e-05
43 *25:44 6.40773e-05
44 *174:A 2.20558e-05
45 *25:46 0.000115339
46 *25:47 0.000274928
47 *25:48 0.000196647
48 *290:B 1.8566e-05
49 *25:50 9.56973e-05
50 *25:51 0.000117779
51 *25:52 0.000104692
52 *25:53 0.00012187
53 *25:54 5.23462e-05
54 *25:55 3.92337e-05
55 *25:56 3.92597e-05
56 *292:B 2.20558e-05
57 *25:59 4.33511e-05
58 *25:60 3.92337e-05
59 *291:A1 2.20558e-05

*RES
1 *25:60 *291:A1 1.4
2 *25:60 *25:61 0.03
3 *25:59 *25:60 1.4
4 *25:56 *25:59 0.248571
5 *25:55 *292:B 1.4
6 *25:55 *25:57 0.220714
7 *25:54 *25:56 0.124286
8 *25:53 *25:55 1.4
9 *25:53 *25:54 0.372857
10 *25:52 *25:53 0.621429
11 *25:51 *25:52 0.372857
12 *25:50 *25:51 0.745714
13 *25:48 *25:50 1.4
14 *25:47 *290:B 1.4
15 *25:47 *25:48 1.74
16 *25:46 *25:47 0.745714
17 *25:44 *25:46 0.372857
18 *25:43 *174:A 1.4
19 *25:43 *25:44 0.248571
20 *25:42 *25:43 1.4
21 *25:41 *25:42 0.124286
22 *25:40 *25:41 4.84714
23 *25:38 *25:40 1.4
24 *25:38 *25:39 0.0878571
25 *25:36 *25:38 0.124286
26 *25:36 *179:Y 1.4
27 *25:34 *25:36 0.372857
28 *25:33 *175:A 1.4
29 *25:29 *25:34 0.248571
30 *25:28 *25:33 0.124286
31 *25:26 *236:B 1.4
32 *25:25 *289:B 1.4
33 *25:24 *237:A0 1.4
34 *25:24 *25:29 1.49143
35 *25:23 *25:28 0.248571
36 *25:22 *176:A 1.4
37 *25:21 *25:26 0.248571
38 *25:20 *25:25 0.621429
39 *25:19 *25:24 0.621429
40 *25:18 *25:23 0.248571
41 *25:18 *25:22 0.248571
42 *25:17 *25:21 1.4
43 *25:16 *25:20 1.4
44 *25:15 *25:19 1.4
45 *25:13 *25:18 0.745714
46 *25:12 *25:17 0.745714
47 *25:12 *25:16 0.248571
48 *25:11 *25:15 0.372857
49 *25:10 *177:A 1.4
50 *25:9 *25:13 1.4
51 *25:9 *25:12 1.86429
52 *25:8 *25:11 1.4
53 *25:7 *25:10 0.248571
54 *25:6 *25:9 0.124286
55 *25:5 *25:8 2.85857
56 *25:4 *25:7 1.4
57 *25:4 *25:6 2.11286
58 *25:4 *25:5 1.4
59 *25:2 *25:4 0.87
60 *25:1 *240:A0 1.4
61 *25:1 *25:2 1.4
62 *25:0 *25:1 0.220714
*END

*D_NET *26 0.00116733

*CONN
*I *185:Y O *C 18.995 21.895 *L 0 *D CLKINVX4
*I *249:A I *C 19.575 20.155 *L 0.00567 *D AND2X6
*I *262:B I *C 21.315 19.865 *L 0.00534 *D NAND2X2
*I *165:A I *C 23.055 14.645 *L 0.00172 *D CLKBUFX2

*CAP
1 *26:1 2.79924e-05
2 *26:2 6.99809e-05
3 *26:3 8.39771e-05
4 *26:4 8.18895e-05
5 *26:5 4.19885e-05
6 *26:6 8.18895e-05
7 *26:8 5.59847e-05
8 *26:9 0.000139962
9 *26:10 8.39771e-05
10 *26:12 8.18895e-05
11 *26:13 8.18895e-05
12 *26:14 0.000167954
13 *26:15 0.000167954

*RES
1 *26:15 *165:A 1.4
2 *26:14 *26:15 1.49139
3 *26:13 *26:14 1.4
4 *26:12 *26:13 0.745732
5 *26:10 *26:12 1.4
6 *26:9 *262:B 1.4
7 *26:9 *26:10 0.745696
8 *26:8 *26:9 0.497131
9 *26:6 *26:8 1.4
10 *26:5 *249:A 1.4
11 *26:4 *26:6 0.745732
12 *26:3 *26:5 0.372848
13 *26:3 *26:4 1.4
14 *26:2 *26:3 0.372848
15 *26:1 *26:2 0.248565
16 *185:Y *26:1 1.4
*END

*D_NET *27 0.000676773

*CONN
*I *215:B I *C 18.995 32.915 *L 0.00534 *D NAND2X2
*I *186:Y O *C 20.735 32.335 *L 0 *D CLKINVX2
*I *240:A1 I *C 25.085 32.915 *L 0.00169 *D OAI211XL

*CAP
1 *27:1 1.36712e-05
2 *27:2 1.36712e-05
3 *27:4 8.11018e-05
4 *27:5 0.00013517
5 *27:7 6.75848e-05
6 *27:10 0.000162204
7 *27:11 0.000148687
8 *27:12 2.73424e-05
9 *27:13 2.73424e-05

*RES
1 *27:13 *240:A1 1.4
2 *27:12 *27:13 0.248567
3 *27:11 *27:12 1.4
4 *27:10 *27:11 1.36712
5 *27:7 *27:10 0.124284
6 *27:6 *27:9 0.220714
7 *27:6 *186:Y 1.4
8 *27:5 *27:7 0.497134
9 *27:5 *27:6 1.4
10 *27:4 *27:5 0.745701
11 *27:2 *27:4 1.4
12 *27:1 *215:B 1.4
13 *27:1 *27:2 0.124284
14 *27:0 *27:1 0.0878571
*END

*D_NET *28 0.00193866

*CONN
*I *261:B I *C 18.415 27.695 *L 0.00534 *D NAND2X2
*I *249:B I *C 18.995 19.865 *L 0.00536 *D AND2X6
*I *152:Y O *C 17.255 16.675 *L 0 *D INVX4
*I *163:A I *C 24.795 14.645 *L 0.00172 *D CLKBUFX2

*CAP
1 *28:2 2.70339e-05
2 *28:4 2.70339e-05
3 *28:5 0.000320125
4 *28:6 0.000320125
5 *28:8 5.59847e-05
6 *28:10 0.000195946
7 *28:11 0.000195946
8 *28:13 1.39962e-05
9 *28:14 4.19885e-05
10 *28:15 2.72965e-05
11 *28:16 0.000272965
12 *152:Y 2.72965e-05
13 *28:18 0.000272965
14 *28:19 6.99809e-05
15 *28:20 6.99809e-05

*RES
1 *28:20 *163:A 1.4
2 *28:19 *28:20 0.621413
3 *28:18 *28:19 1.4
4 *28:16 *28:18 2.48577
5 *28:15 *152:Y 0.248577
6 *28:14 *28:16 1.4
7 *28:13 *28:15 1.4
8 *28:11 *28:14 0.372848
9 *28:11 *28:13 0.124283
10 *28:10 *249:B 1.4
11 *28:10 *28:11 1.24283
12 *28:8 *28:10 0.497131
13 *28:7 *28:9 0.220714
14 *28:7 *28:8 1.4
15 *28:6 *28:7 1.4
16 *28:5 *28:6 2.85851
17 *28:4 *28:5 1.4
18 *28:2 *28:4 0.248567
19 *28:1 *261:B 1.4
20 *28:1 *28:2 1.4
21 *28:0 *28:1 0.220714
*END

*D_NET *29 0.00556029

*CONN
*I *180:Y O *C 14.355 20.155 *L 0 *D BUFX2
*I *196:GN I *C 10.585 19.865 *L 0.00174 *D TLATNXL
*I *199:GN I *C 38.425 14.645 *L 0.00174 *D TLATNXL
*I *197:GN I *C 10.875 35.525 *L 0.00174 *D TLATNXL
*I *198:GN I *C 38.425 12.035 *L 0.00174 *D TLATNXL
*I *201:GN I *C 10.585 32.915 *L 0.00174 *D TLATNXL
*I *200:GN I *C 11.455 38.135 *L 0.00174 *D TLATNXL

*CAP
1 *29:1 0.00029392
2 *29:2 1.36483e-05
3 *29:3 1.39962e-05
4 *29:4 0.000279924
5 *180:Y 1.36483e-05
6 *29:6 0.000163779
7 *29:7 0.000286613
8 *29:8 0.000163779
9 *29:9 0.000300262
10 *29:10 0.000485804
11 *29:11 0.000594813
12 *29:12 0.000471158
13 *29:13 4.19885e-05
14 *29:14 0.000595182
15 *29:15 0.00023241
16 *29:17 0.000308384
17 *29:18 0.000218739
18 *29:19 0.000294367
19 *29:20 8.20271e-05
20 *29:21 0.000100009
21 *29:22 8.20271e-05
22 *29:23 5.46847e-05
23 *29:24 0.000100009
24 *29:26 5.46847e-05
25 *29:28 4.10135e-05
26 *29:30 0.000150383
27 *29:32 0.000123041

*RES
1 *29:32 *200:GN 1.4
2 *29:30 *29:32 1.11855
3 *29:28 *201:GN 1.4
4 *29:26 *29:30 0.248567
5 *29:24 *198:GN 1.4
6 *29:23 *29:28 0.372851
7 *29:22 *197:GN 1.4
8 *29:22 *29:26 0.248567
9 *29:21 *199:GN 1.4
10 *29:21 *29:24 0.869979
11 *29:20 *29:23 0.124284
12 *29:20 *29:22 0.497134
13 *29:19 *29:21 1.4
14 *29:18 *29:20 0.124284
15 *29:17 *29:19 2.60995
16 *29:15 *29:18 1.86425
17 *29:14 *29:17 0.124283
18 *29:13 *196:GN 1.4
19 *29:12 *29:15 0.248567
20 *29:11 *29:14 5.22001
21 *29:10 *29:13 0.372848
22 *29:10 *29:12 3.97706
23 *29:9 *29:11 0.124289
24 *29:8 *29:10 1.4
25 *29:7 *29:9 2.61006
26 *29:6 *29:8 1.49146
27 *29:4 *29:7 1.4
28 *29:3 *29:6 1.4
29 *29:2 *180:Y 0.124289
30 *29:1 *29:4 2.48565
31 *29:1 *29:3 0.124283
32 *29:1 *29:2 1.4
33 *29:0 *29:1 0.0878571
*END

*D_NET *30 0.0111998

*CONN
*I *188:CK I *C 28.275 40.745 *L 0.00171 *D DFFRHQX4
*P *30 I *C 29.435 50.17 *L 0
*I *247:CK I *C 21.895 38.135 *L 0.00171 *D DFFRHQX4
*I *187:CK I *C 46.835 38.135 *L 0.00173 *D DFFRHQX8
*I *210:CK I *C 18.705 35.525 *L 0.00171 *D DFFRHQX4
*I *192:CK I *C 20.445 22.475 *L 0.00171 *D DFFRHQX4
*I *293:CK I *C 29.435 11.745 *L 0.00173 *D DFFSX1
*I *189:CK I *C 34.365 17.255 *L 0.00171 *D DFFRHQX4
*I *191:CK I *C 19.575 17.255 *L 0.00171 *D DFFRHQX4
*I *190:CK I *C 38.135 25.085 *L 0.00171 *D DFFRHQX4
*I *193:CK I *C 26.245 9.425 *L 0.00171 *D DFFRHQX4

*CAP
1 *30:2 0.000361094
2 *30:4 0.000861383
3 *30:5 0.000303669
4 *30:6 0.000448434
5 *30:7 0.000818314
6 *30:8 0.000123041
7 *30 0.000448434
8 *30:10 7.17819e-05
9 *30:11 0.000164054
10 *30:12 5.74255e-05
11 *30:13 4.10135e-05
12 *30:15 0.000115725
13 *30:16 6.75848e-05
14 *30:17 0.000115725
15 *30:18 0.000148687
16 *30:20 0.0006733
17 *30:21 8.11018e-05
18 *30:22 0.0006733
19 *30:23 8.20271e-05
20 *30:24 0.00027315
21 *30:25 8.20271e-05
22 *30:26 0.00027315
23 *30:27 2.79924e-05
24 *30:29 0.000557196
25 *30:30 0.000111969
26 *30:31 5.71483e-05
27 *30:32 0.000500047
28 *30:33 9.79732e-05
29 *30:35 0.000182227
30 *30:36 0.000154192
31 *30:37 2.79924e-05
32 *30:38 0.000196245
33 *30:39 0.000392489
34 *30:40 2.79924e-05
35 *30:41 0.000336419
36 *30:42 0.000238297
37 *30:43 4.28612e-05
38 *30:44 5.59847e-05
39 *30:45 0.000336419
40 *30:46 0.000214306
41 *30:47 7.14353e-05
42 *30:48 5.59847e-05
43 *30:49 8.41048e-05
44 *30:50 0.000214306
45 *30:51 2.85741e-05
46 *30:53 0.000125966
47 *30:54 7.00873e-05
48 *30:56 0.000126157
49 *30:57 0.000111969
50 *30:58 4.28612e-05
51 *30:59 0.000126157
52 *30:61 4.28612e-05
53 *30:62 4.28612e-05
54 *30:64 7.14353e-05
55 *30:65 8.57224e-05
56 *30:66 5.71483e-05

*RES
1 *30:66 *193:CK 1.4
2 *30:65 *30:66 0.497131
3 *30:64 *30:65 0.248565
4 *30:62 *30:64 0.372848
5 *30:61 *190:CK 1.4
6 *30:59 *30:62 1.4
7 *30:58 *30:61 0.372848
8 *30:57 *191:CK 1.4
9 *30:56 *30:59 1.11855
10 *30:54 *30:58 1.4
11 *30:53 *30:57 0.994261
12 *30:51 *30:56 1.4
13 *30:50 *189:CK 1.4
14 *30:49 *30:54 0.621417
15 *30:48 *30:53 0.124283
16 *30:47 *293:CK 1.4
17 *30:47 *30:51 0.248565
18 *30:46 *30:50 1.86424
19 *30:45 *30:49 0.124283
20 *30:44 *30:48 0.372848
21 *30:43 *30:47 0.372848
22 *30:42 *30:46 1.4
23 *30:41 *30:45 2.85852
24 *30:40 *30:44 0.124283
25 *30:39 *30:43 1.4
26 *30:39 *30:42 2.11282
27 *30:38 *30:41 0.124283
28 *30:37 *30:40 0.124283
29 *30:36 *30:39 1.36712
30 *30:35 *30:38 1.61568
31 *30:33 *30:37 0.124283
32 *30:32 *30:36 1.4
33 *30:31 *30:35 1.4
34 *30:30 *192:CK 1.4
35 *30:30 *30:33 0.745696
36 *30:29 *30:32 4.34989
37 *30:29 *30:31 0.497131
38 *30:27 *30:30 0.248565
39 *30:26 *30:29 1.4
40 *30:25 *210:CK 1.4
41 *30:24 *30:27 1.4
42 *30:24 *30:26 2.48577
43 *30:23 *30:25 0.745701
44 *30:22 *30:24 1.4
45 *30:21 *30:23 1.4
46 *30:20 *30:22 6.08988
47 *30:18 *30:21 0.745701
48 *30:18 *30:20 1.4
49 *30:17 *187:CK 1.4
50 *30:16 *30:18 0.621418
51 *30:15 *30:17 0.99431
52 *30:13 *30:16 1.4
53 *30:12 *30:15 1.4
54 *30:11 *247:CK 1.4
55 *30:11 *30:13 0.372851
56 *30:10 *30:12 0.497133
57 *30:8 *30:11 1.11855
58 *30:7 *30:10 0.124283
59 *30:6 *30 3.85295
60 *30:5 *30:8 1.4
61 *30:4 *30:7 6.95987
62 *30:4 *30:6 1.4
63 *30:2 *30:5 2.73424
64 *30:2 *30:4 0.497133
65 *30:1 *188:CK 1.4
66 *30:1 *30:2 1.4
67 *30:0 *30:1 0.220714
*END

*D_NET *31 0.000942947

*CONN
*P *31 I *C 39.005 0 *L 0
*I *184:A I *C 39.295 9.715 *L 0.00784 *D INVX3

*CAP
1 *31 0.000228593
2 *31:1 0.00024288
3 *31:2 0.00024288
4 *31:3 0.000228593

*RES
1 *31:3 *184:A 1.4
2 *31:2 *31:3 1.98852
3 *31:1 *31:2 0.124283
4 *31 *31:1 1.98852
*END

*D_NET *32 0.000846192

*CONN
*P *32 O *C 0 20.445 *L 0
*I *196:Q O *C 8.845 20.445 *L 0 *D TLATNXL

*CAP
1 *32:2 4.09448e-05
2 *32:3 0.000191076
3 *32:4 5.4593e-05
4 *32 0.000191076
5 *32:6 0.000109186
6 *32:7 0.000109186
7 *32:8 8.18895e-05
8 *196:Q 6.82413e-05

*RES
1 *32:8 *196:Q 0.621444
2 *32:7 *32:8 0.124289
3 *32:6 *32:7 0.870021
4 *32:4 *32:6 0.124289
5 *32:3 *32 1.74004
6 *32:2 *32:4 0.372866
7 *32:1 *32:3 1.4
8 *32:1 *32:2 1.4
9 *32:0 *32:1 0.220714
*END

*D_NET *33 0.00151281

*CONN
*I *199:Q O *C 40.165 15.225 *L 0 *D TLATNXL
*P *33 O *C 41.035 0 *L 0

*CAP
1 *199:Q 4.20524e-05
2 *33:1 4.20524e-05
3 *33:2 0.000714353
4 *33 0.000714353

*RES
1 *33:2 *33 6.21413
2 *33:1 *33:2 1.4
3 *199:Q *33:1 0.37285
*END

*D_NET *34 0.00153438

*CONN
*I *198:Q O *C 40.165 11.455 *L 0 *D TLATNXL
*P *34 O *C 44.225 0 *L 0

*CAP
1 *198:Q 5.60699e-05
2 *34:1 7.00874e-05
3 *34:2 0.00011214
4 *34:3 0.00011214
5 *34:4 5.60699e-05
6 *34:5 4.20524e-05
7 *34:6 0.000542909
8 *34 0.000542909

*RES
1 *34:6 *34 4.72274
2 *34:5 *34:6 1.4
3 *34:4 *34:5 0.37285
4 *34:3 *34:4 0.124283
5 *34:2 *34:3 0.869984
6 *34:1 *34:2 0.124283
7 *198:Q *34:1 0.497134
*END

*D_NET *35 0.00119319

*CONN
*P *35 O *C 0 41.325 *L 0
*I *200:Q O *C 9.715 37.555 *L 0 *D TLATNXL

*CAP
1 *35 1.3517e-05
2 *35:1 1.3517e-05
3 *35:2 0.000164054
4 *35:3 0.000164054
5 *35:4 0.000419026
6 *200:Q 0.000419026

*RES
1 *35:4 *200:Q 3.85279
2 *35:3 *35:4 1.4
3 *35:2 *35:3 1.4914
4 *35:1 *35:2 1.4
5 *35 *35:1 0.124284
*END

*D_NET *36 0.000838052

*CONN
*P *36 O *C 0 32.335 *L 0
*I *201:Q O *C 8.845 32.335 *L 0 *D TLATNXL
