*SPEF "IEEE 1481-1998"
*DESIGN "alu"
*DATE "Wed Jun 24 14:36:26 2026"
*VENDOR "Cadence Design Systems, Inc."
*PROGRAM "Innovus"
*VERSION "21.15-s110_1"
*DESIGN_FLOW "PIN_CAP NONE" "NAME_SCOPE LOCAL"
*DIVIDER /
*DELIMITER :
*BUS_DELIMITER []
*T_UNIT 1 NS
*C_UNIT 1 PF
*R_UNIT 1 OHM
*L_UNIT 1 HENRY

// MMMC spef file for corner 'rc_corner'

*NAME_MAP

*1 FE_OCPN11_n_1142
*2 FE_RN_15_0
*3 FE_RN_14_0
*4 FE_RN_13_0
*5 FE_RN_12_0
*6 FE_RN_11_0
*7 FE_RN_10_0
*8 FE_OCPN10_n_1223
*9 FE_RN_9_0
*10 FE_RN_4
*11 FE_RN_3
*12 FE_RN_8_0
*13 FE_OCPN9_n_1226
*14 FE_RN_7_0
*15 FE_RN_6_0
*16 FE_RN_5_0
*17 FE_RN_2
*18 FE_RN_4_0
*19 FE_OCPN8_n_980
*20 FE_RN_1
*21 FE_RN_3_0
*22 FE_RN_2_0
*23 FE_RN_1_0
*24 FE_OCPN7_n_1674
*25 FE_RN_0_0
*26 FE_DBTN6_a_3
*27 FE_DBTN5_a_2
*28 FE_DBTN4_a_1
*29 FE_DBTN3_a_0
*30 FE_DBTN2_b_3
*31 FE_DBTN1_b_2
*32 FE_DBTN0_c_3
*33 a[3]
*34 a[2]
*35 a[1]
*36 a[0]
*37 b[3]
*38 b[2]
*39 b[1]
*40 b[0]
*41 c[3]
*42 c[2]
*43 c[1]
*44 c[0]
*45 clk
*46 rst
*47 y[7]
*48 y[6]
*49 y[5]
*50 y[4]
*51 y[3]
*52 y[2]
*53 y[1]
*54 y[0]
*55 n_3
*56 n_5
*57 n_6
*58 n_8
*59 n_14
*60 n_15
*61 n_21
*62 n_22
*63 n_23
*64 n_28
*65 n_44
*66 n_46
*67 n_47
*68 n_49
*69 n_50
*70 n_51
*71 n_52
*72 n_55
*73 n_56
*74 n_57
*75 n_60
*76 n_67
*77 n_70
*78 n_72
*79 n_81
*80 n_84
*81 n_87
*82 n_90
*83 n_91
*84 n_92
*85 n_94
*86 n_99
*87 n_104
*88 n_105
*89 n_106
*90 n_107
*91 n_108
*92 n_110
*93 n_111
*94 n_116
*95 n_118
*96 n_119
*97 n_122
*98 n_126
*99 n_128
*100 n_133
*101 n_137
*102 n_139
*103 n_142
*104 n_143
*105 n_144
*106 n_145
*107 n_147
*108 n_149
*109 n_150
*110 n_151
*111 n_156
*112 n_158
*113 n_159
*114 n_161
*115 n_172
*116 n_173
*117 n_174
*118 n_176
*119 n_192
*120 n_200
*121 n_202
*122 n_206
*123 n_209
*124 n_216
*125 n_222
*126 n_223
*127 n_226
*128 n_247
*129 n_304
*130 n_343
*131 n_354
*132 n_355
*133 n_360
*134 n_609
*135 n_610
*136 n_614
*137 n_639
*138 n_642
*139 n_648
*140 n_656
*141 n_657
*142 n_658
*143 n_663
*144 n_691
*145 n_699
*146 n_708
*147 n_739
*148 n_760
*149 n_761
*150 n_777
*151 n_778
*152 n_783
*153 n_785
*154 n_809
*155 n_821
*156 n_834
*157 n_835
*158 n_868
*159 n_880
*160 n_881
*161 n_882
*162 n_891
*163 n_892
*164 n_915
*165 n_919
*166 n_920
*167 n_938
*168 n_939
*169 n_951
*170 n_956
*171 n_957
*172 n_965
*173 n_968
*174 n_971
*175 n_972
*176 n_974
*177 n_979
*178 n_980
*179 n_981
*180 n_984
*181 n_1012
*182 n_1013
*183 n_1017
*184 n_1034
*185 n_1035
*186 n_1039
*187 n_1066
*188 n_1067
*189 n_1068
*190 n_1069
*191 n_1108
*192 n_1114
*193 n_1115
*194 n_1116
*195 n_1117
*196 n_1118
*197 n_1119
*198 n_1137
*199 n_1142
*200 n_1144
*201 n_1145
*202 n_1147
*203 n_1148
*204 n_1149
*205 n_1150
*206 n_1151
*207 n_1152
*208 n_1153
*209 n_1161
*210 n_1205
*211 n_1220
*212 n_1223
*213 n_1226
*214 n_1227
*215 n_1229
*216 n_1230
*217 n_1240
*218 n_1241
*219 n_1244
*220 n_1245
*221 n_1248
*222 n_1249
*223 n_1250
*224 n_1254
*225 n_1255
*226 n_1257
*227 n_1258
*228 n_1364
*229 n_1365
*230 n_1366
*231 n_1374
*232 n_1378
*233 n_1392
*234 n_1393
*235 n_1396
*236 n_1404
*237 n_1405
*238 n_1407
*239 n_1408
*240 n_1409
*241 n_1414
*242 n_1415
*243 n_1416
*244 n_1417
*245 n_1418
*246 n_1419
*247 n_1422
*248 n_1423
*249 n_1424
*250 n_1425
*251 n_1430
*252 n_1431
*253 n_1432
*254 n_1433
*255 n_1477
*256 n_1504
*257 n_1506
*258 n_1507
*259 n_1513
*260 n_1514
*261 n_1515
*262 n_1516
*263 n_1517
*264 n_1610
*265 n_1614
*266 n_1616
*267 n_1630
*268 n_1632
*269 n_1633
*270 n_1673
*271 n_1674
*272 n_1675
*273 n_1676
*274 n_1679
*275 n_1680
*276 n_1682
*277 n_1683
*278 n_1684
*279 n_1685
*280 n_1708
*281 n_1710
*282 n_1711
*283 n_1713
*284 n_1714
*285 n_1718
*286 n_1719
*287 n_1720
*288 n_1722
*289 n_1739
*290 n_1740
*291 n_1743
*292 n_1744
*293 n_1745
*294 n_1746
*295 n_1749
*296 n_1750
*297 n_1751
*298 n_1752
*299 n_1753
*300 n_1754
*301 n_1755
*302 n_1756
*303 n_1759
*304 n_1760
*305 n_1764
*306 n_1765
*307 n_1767
*308 n_1768
*309 n_1770
*310 n_1771
*311 n_1772
*312 n_1774
*313 n_1775
*314 n_1776
*315 n_1777
*316 n_1780
*317 n_1781
*318 n_1783
*319 n_1784
*320 n_1785
*321 n_1786
*322 n_1787
*323 n_1788
*324 n_1789
*325 n_1790
*326 n_1821
*327 n_1822
*328 n_1823
*329 n_1824
*330 n_1838
*331 n_1839
*332 n_1840
*333 n_1841
*334 n_1881
*335 n_1887
*336 n_1888
*337 n_1889
*338 n_1890
*339 n_1909
*340 n_1910
*341 n_1911
*342 n_1912
*343 n_1913
*344 n_1914
*345 n_1915
*346 n_1916
*347 n_1917
*348 n_1918
*349 n_1923
*350 FE_OCPC11_n_1142
*351 FE_RC_43_0
*352 FE_RC_42_0
*353 FE_RC_41_0
*354 FE_RC_40_0
*355 FE_RC_39_0
*356 FE_RC_38_0
*357 FE_RC_37_0
*358 FE_RC_36_0
*359 FE_RC_35_0
*360 FE_RC_34_0
*361 FE_RC_33_0
*362 FE_RC_32_0
*363 FE_OCPC10_n_1223
*364 FE_RC_30_0
*365 FE_RC_29_0
*366 FE_RC_28_0
*367 FE_RC_27_0
*368 FE_RC_26_0
*369 g38765_dup
*370 FE_RC_25_0
*371 FE_RC_24_0
*372 FE_RC_23_0
*373 FE_DBTC4_a_1_dup1
*374 FE_RC_22_0
*375 FE_RC_21_0
*376 FE_RC_20_0
*377 FE_RC_19_0
*378 FE_OCPC9_n_1226
*379 FE_RC_18_0
*380 FE_RC_17_0
*381 FE_RC_16_0
*382 FE_RC_15_0
*383 FE_DBTC2_b_3_dup
*384 FE_RC_14_0
*385 FE_RC_13_0
*386 FE_OCPC8_n_980
*387 FE_DBTC4_a_1_dup
*388 FE_RC_12_0
*389 FE_RC_11_0
*390 FE_RC_10_0
*391 FE_RC_9_0
*392 FE_RC_7_0
*393 FE_OCPC7_n_1674
*394 FE_RC_6_0
*395 FE_RC_5_0
*396 FE_RC_4_0
*397 FE_RC_3_0
*398 FE_RC_2_0
*399 FE_RC_1_0
*400 FE_OFC3_n_15
*401 FE_OFC2_n_785
*402 FE_OFC1_n_99
*403 FE_OFC0_rst
*404 FE_DBTC6_a_3
*405 FE_DBTC5_a_2
*406 FE_DBTC4_a_1
*407 FE_DBTC3_a_0
*408 FE_DBTC2_b_3
*409 FE_DBTC0_c_3
*410 y_reg\[5\]
*411 y_reg\[4\]
*412 y_reg\[6\]
*413 y_reg\[7\]
*414 y_reg\[3\]
*415 y_reg\[0\]
*416 y_reg\[2\]
*417 y_reg\[1\]
*418 g38136__6131
*419 g38139__5115
*420 g38151__7410
*421 g38141
*422 g38176__6260
*423 g38175__2802
*424 g38169__7482
*425 g38178__6161
*426 g38195__7410
*427 g38168__6417
*428 g38186__2398
*429 g38177__5107
*430 g38199__6783
*431 g38192__3680
*432 g38193__1617
*433 g38198__2802
*434 g38202__8246
*435 g38205__4733
*436 g38196__9315
*437 g38207__9945
*438 g38215__1666
*439 g38203__6417
*440 g38212__5477
*441 g38234__2398
*442 g38235__8428
*443 g38225__5526
*444 g38214__6783
*445 g38269
*446 g38200__1705
*447 g38208__8246
*448 g38221__1881
*449 g38272__7482
*450 g38229__9945
*451 g38246
*452 g38278__2346
*453 g38273__7410
*454 g38251
*455 g38267
*456 g38264__6260
*457 g38224__5526
*458 g38268
*459 g38249
*460 g38226__1617
*461 g38275__2802
*462 g38325
*463 g38277__1705
*464 g38248
*465 g38258__7098
*466 g38259__4733
*467 g38330
*468 g38293
*469 g38282__2883
*470 g38322
*471 g38262__6417
*472 g38287
*473 g38333__5107
*474 g38292
*475 g38344__8428
*476 g38276__3680
*477 g38336__2802
*478 g38297
*479 g38332__7482
*480 g38300__4733
*481 g38340__6161
*482 g38301__6260
*483 g38307__8428
*484 g38280__38400
*485 g164
*486 g171
*487 g183
*488 g175
*489 g40
*490 g41
*491 g33
*492 g38478
*493 g1071
*494 g54
*495 g62
*496 g61
*497 g18
*498 g24
*499 g38506
*500 g34
*501 g38522
*502 g68
*503 g115
*504 g38532
*505 g145
*506 g28
*507 g38548
*508 g9
*509 g10
*510 g83
*511 g38584
*512 g38585
*513 g38592
*514 g38593
*515 g97
*516 g95
*517 g38605
*518 g38620
*519 g38621
*520 g81
*521 g38632
*522 g38640
*523 g38641
*524 g99
*525 g17
*526 g84
*527 g38645
*528 g38647
*529 g38656
*530 g38657
*531 g38660
*532 g38678
*533 g38679
*534 g51
*535 g38698
*536 g3
*537 g38699
*538 g38345__38700
*539 g219
*540 g375
*541 g379
*542 g380
*543 g382
*544 g378
*545 g50
*546 g147
*547 g148
*548 g152
*549 g151
*550 g155
*551 g150
*552 g154
*553 g153
*554 g22
*555 g23
*556 g38744
*557 g216
*558 g38756
*559 g38761
*560 g38762
*561 g38765
*562 g38767
*563 g92
*564 g93
*565 g38771
*566 g557
*567 g563
*568 g561
*569 g562
*570 g560
*571 g26
*572 g38849
*573 g38850
*574 g38238__38852
*575 g38861
*576 g270
*577 g274
*578 g272
*579 g38877
*580 g38316__38878
*581 g38261__38880
*582 g38881
*583 g38882
*584 g58
*585 g38889
*586 g38890
*587 g63
*588 g38891
*589 g38892
*590 g38893
*591 g38894
*592 g38897
*593 g38898
*594 g38901
*595 g38902
*596 g38903
*597 g75
*598 g38
*599 g38946
*600 g38947
*601 g38952
*602 g38284__38953
*603 g38299__38954
*604 g38955
*605 g38132__38956
*606 g67
*607 g71
*608 g39042
*609 g39050
*610 g65
*611 g38304__39084
*612 g39085
*613 g2
*614 g39086
*615 g39089
*616 g39090
*617 g39092
*618 g39093
*619 g39094
*620 g39095
*621 g39109
*622 g39111
*623 g39112
*624 g39113
*625 g39114
*626 g39117
*627 g39118
*628 g21
*629 g39125
*630 g273
*631 g39126
*632 g277
*633 g11
*634 g181
*635 g182
*636 g184
*637 g185
*638 g186
*639 g39129
*640 g187
*641 g39131
*642 g39132
*643 g47
*644 g79
*645 g74
*646 g78
*647 g39136
*648 g80
*649 g39137
*650 g39138
*651 g39139
*652 g39141
*653 g39
*654 g112
*655 g113
*656 g116
*657 g39144
*658 g114
*659 g39145
*660 g39146
*661 g39147
*662 g39168
*663 g39169
*664 g39170
*665 g39171
*666 g39182
*667 g52
*668 g39184
*669 g39211
*670 g98
*671 g39217
*672 g101
*673 g100
*674 g39233
*675 g39234
*676 g39235
*677 g57
*678 g60
*679 g39236
*680 g59
*681 g39237
*682 g39238
*683 g39239
*684 g39244


*PORTS

*33 I *C 76.27 28.275
*34 I *C 76.27 31.175
*35 I *C 76.27 36.105
*36 I *C 41.035 73.66
*37 I *C 47.995 0
*38 I *C 76.27 30.595
*39 I *C 76.27 40.165
*40 I *C 76.27 38.425
*41 I *C 19.285 73.66
*42 I *C 0 54.955
*43 I *C 19.285 73.66
*44 I *C 0 53.795
*45 I *C 0 33.785
*46 I *C 0 40.745
*47 O *C 0 27.115
*48 O *C 0 22.475
*49 O *C 0 25.085
*50 O *C 0 32.335
*51 O *C 0 35.525
*52 O *C 0 37.555
*53 O *C 0 46.545
*54 O *C 0 43.355


*D_NET *1 0.000604084

*CONN
*I *382:A1 I *C 18.995 35.525 *L 0.00278 *D OAI211X1
*I *350:Y O *C 19.285 41.035 *L 0 *D CLKBUFX2

*CAP
1 *1:1 0.000151021
2 *1:2 0.000166123
3 *1:3 0.000151021
4 *1:4 0.000135919

*RES
1 *1:4 *350:Y 1.4
2 *1:3 *1:4 1.11855
3 *1:2 *1:3 0.124284
4 *1:1 *1:2 1.24284
5 *382:A1 *1:1 1.4
*END

*D_NET *2 0.000590083

*CONN
*I *352:Y O *C 9.135 51.765 *L 0 *D CLKINVX3
*I *353:A I *C 8.845 56.405 *L 0.00564 *D NOR2X2

*CAP
1 *2:0 0.000195352
2 *2:1 0.000113352
3 *2:2 0.000153491
4 *2:3 7.14911e-05
5 *2:4 2.81985e-05
6 *353:A 2.81985e-05

*RES
1 *2:4 *353:A 0.248578
2 *2:3 *352:Y 1.4
3 *2:2 *2:4 1.4
4 *2:1 *2:3 0.621432
5 *2:0 *2:2 1.36717
6 *2:0 *2:1 0.372863
*END

*D_NET *3 0.000814266

*CONN
*I *360:B I *C 40.165 27.985 *L 0.00542 *D NOR2X2
*I *359:Y O *C 41.035 33.205 *L 0 *D NAND2X1

*CAP
1 *3:0 0.000254458
2 *3:1 0.000254458
3 *3:2 6.78555e-05
4 *3:3 5.08916e-05
5 *3:4 5.08916e-05
6 *3:5 8.48194e-05
7 *3:7 5.08916e-05

*RES
1 *3:7 *359:Y 1.4
2 *3:5 *3:7 0.372862
3 *3:4 *360:B 1.4
4 *3:3 *3:5 0.248575
5 *3:2 *3:4 0.372862
6 *3:1 *3:3 0.124287
7 *3:0 *3:2 0.124287
8 *3:0 *3:1 1.74002
*END

*D_NET *4 0.000492685

*CONN
*I *359:B I *C 41.035 32.335 *L 0.00284 *D NAND2X1
*I *358:Y O *C 43.355 33.205 *L 0 *D NAND2X1

*CAP
1 *4:2 1.75959e-05
2 *4:4 0.000211151
3 *4:5 0.000193555
4 *4:7 3.51918e-05
5 *358:Y 3.51918e-05

*RES
1 *4:7 *358:Y 0.248566
2 *4:6 *4:8 0.220714
3 *4:6 *4:7 1.4
4 *4:5 *4:6 1.4
5 *4:4 *4:5 1.36711
6 *4:2 *4:4 0.124283
7 *4:1 *359:B 1.4
8 *4:1 *4:2 1.4
9 *4:0 *4:1 0.220714
*END

*D_NET *5 0.000307878

*CONN
*I *357:Y O *C 42.2775 32.625 *L 0 *D CLKINVX1
*I *358:B I *C 43.355 32.335 *L 0.00284 *D NAND2X1

*CAP
1 *357:Y 3.51918e-05
2 *5:1 3.51918e-05
3 *5:2 5.08916e-05
4 *5:3 8.48194e-05
5 *5:4 6.78555e-05
6 *5:5 3.39278e-05

*RES
1 *5:5 *358:B 1.4
2 *5:4 *5:5 0.248575
3 *5:3 *5:4 0.248575
4 *5:2 *5:3 0.372862
5 *5:1 *5:2 1.4
6 *357:Y *5:1 0.248566
*END

*D_NET *6 0.000105575

*CONN
*I *356:Y O *C 39.9575 32.625 *L 0 *D CLKINVX1
*I *359:A I *C 40.745 32.625 *L 0.00267 *D NAND2X1

*CAP
1 *356:Y 5.27877e-05
2 *359:A 5.27877e-05

*RES
1 *356:Y *359:A 0.372849
*END

*D_NET *7 7.03836e-05

*CONN
*I *362:Y O *C 39.0875 32.625 *L 0 *D CLKINVX1
*I *356:A I *C 39.585 32.625 *L 0.00273 *D CLKINVX1

*CAP
1 *362:Y 3.51918e-05
2 *356:A 3.51918e-05

*RES
1 *362:Y *356:A 0.248566
*END

*D_NET *8 0.0012353

*CONN
*I *467:A I *C 27.695 46.255 *L 0.00273 *D CLKINVX1
*I *511:B0 I *C 29.145 43.355 *L 0.00277 *D AOI21X1
*I *363:Y O *C 29.725 37.845 *L 0 *D CLKBUFX2

*CAP
1 *467:A 1.75959e-05
2 *8:1 8.79796e-05
3 *8:2 0.000140767
4 *8:3 7.03836e-05
5 *8:4 0.000101783
6 *8:5 0.000424097
7 *8:6 0.000322314
8 *8:8 3.51918e-05
9 *363:Y 3.51918e-05

*RES
1 *8:8 *363:Y 0.248566
2 *8:6 *8:8 1.4
3 *8:5 *511:B0 1.4
4 *8:5 *8:6 2.36146
5 *8:4 *8:5 0.745724
6 *8:3 *8:4 1.4
7 *8:2 *8:3 0.497132
8 *8:1 *8:2 0.497132
9 *467:A *8:1 0.124283
*END

*D_NET *9 0.000560093

*CONN
*I *368:B I *C 52.345 51.185 *L 0.0166 *D NAND2X6
*I *367:Y O *C 55.245 56.985 *L 0 *D NOR2X8

*CAP
1 *9:1 5.90403e-05
2 *9:2 9.81177e-05
3 *9:3 0.000156309
4 *9:4 0.000130258
5 *9:5 5.21031e-05
6 *9:6 3.90774e-05
7 *9:7 1.25938e-05
8 *367:Y 1.25938e-05

*RES
1 *9:7 *367:Y 0.124289
2 *9:6 *9:7 1.4
3 *9:5 *9:6 0.372866
4 *9:4 *9:5 0.124289
5 *9:3 *9:4 1.1186
6 *9:2 *9:3 0.372866
7 *9:1 *9:2 0.497155
8 *368:B *9:1 1.4
*END

*D_NET *10 0.00030021

*CONN
*I *369:Y O *C 51.765 47.995 *L 0 *D NOR2X8
*I *368:A I *C 51.765 51.475 *L 0.0168 *D NAND2X6

*CAP
1 *10:0 0.000120063
2 *10:1 1.50078e-05
3 *10:2 0.000105055
4 *10:3 1.50212e-05
5 *10:4 1.50212e-05
6 *369:Y 1.50212e-05
7 *368:A 1.50212e-05

*RES
1 *10:4 *368:A 0.124283
2 *10:3 *369:Y 0.124283
3 *10:2 *10:4 1.4
4 *10:1 *10:3 1.4
5 *10:0 *10:2 0.870021
6 *10:0 *10:1 0.124289
*END

*D_NET *11 0.00149201

*CONN
*I *561:B I *C 52.345 45.965 *L 0.0109 *D NOR2X4
*I *369:B I *C 52.345 48.575 *L 0.0219 *D NOR2X8
*I *373:Y O *C 49.445 61.335 *L 0 *D CLKINVX20

*CAP
1 *11:1 0.000135071
2 *11:2 0.000433388
3 *11:3 0.000311343
4 *11:5 0.000312619
5 *11:6 0.000299593

*RES
1 *11:6 *373:Y 1.4
2 *11:5 *11:6 2.85864
3 *11:3 *11:5 0.124289
4 *11:2 *369:B 1.4
5 *11:2 *11:3 2.61006
6 *11:1 *11:2 1.1186
7 *561:B *11:1 1.4
*END

*D_NET *12 0.00036345

*CONN
*I *376:AN I *C 12.615 45.675 *L 0.00173 *D NOR2BX2
*I *375:Y O *C 13.775 47.995 *L 0 *D NAND2XL

*CAP
1 *12:1 0.000135919
2 *12:2 0.000135919
3 *12:3 4.58058e-05
4 *375:Y 4.58058e-05

*RES
1 *12:3 *375:Y 0.372849
2 *12:2 *12:3 1.4
3 *12:1 *12:2 1.11855
4 *376:AN *12:1 1.4
*END

*D_NET *13 0.0006107

*CONN
*I *378:Y O *C 48.285 46.255 *L 0 *D CLKBUFX2
*I *532:B I *C 48.575 51.475 *L 0.00272 *D NOR3X1

*CAP
1 *13:1 0.000152675
2 *13:2 0.000169639
3 *13:3 0.000152675
4 *13:4 0.000135711

*RES
1 *13:4 *532:B 1.4
2 *13:3 *13:4 0.994299
3 *13:2 *13:3 0.124287
4 *13:1 *13:2 1.11859
5 *378:Y *13:1 1.4
*END

*D_NET *14 0.000758102

*CONN
*I *381:Y O *C 16.675 41.615 *L 0 *D NAND2BX1
*I *382:B0 I *C 19.285 35.525 *L 0.0028 *D OAI211X1

*CAP
1 *14:0 0.000166123
2 *14:1 0.000151021
3 *14:2 1.51021e-05
4 *14:4 0.000137417
5 *14:5 0.000137417
6 *14:6 7.55105e-05
7 *14:7 7.55105e-05

*RES
1 *14:7 *382:B0 1.4
2 *14:6 *14:7 0.621418
3 *14:5 *14:6 1.4
4 *14:4 *14:5 1.11855
5 *14:2 *14:4 1.4
6 *14:1 *381:Y 1.4
7 *14:0 *14:2 0.124284
8 *14:0 *14:1 1.24284
*END

*D_NET *15 0.000580206

*CONN
*I *380:Y O *C 13.9825 41.035 *L 0 *D CLKINVX1
*I *381:AN I *C 15.805 41.035 *L 0.00178 *D NAND2BX1

*CAP
1 *15:2 6.10744e-05
2 *15:3 0.000183223
3 *15:4 7.63429e-05
4 *15:5 0.000183223
5 *15:6 4.58058e-05
6 *380:Y 3.05372e-05

*RES
1 *15:7 *381:AN 1.4
2 *15:7 *15:9 0.220714
3 *15:6 *380:Y 0.248566
4 *15:5 *15:7 1.4
5 *15:4 *15:6 0.124283
6 *15:3 *15:5 1.4914
7 *15:2 *15:4 0.497132
8 *15:1 *15:3 1.4
9 *15:1 *15:2 1.4
10 *15:0 *15:1 0.220714
*END

*D_NET *16 0.000335909

*CONN
*I *382:C0 I *C 19.575 36.105 *L 0.00287 *D OAI211X1
*I *379:Y O *C 22.5575 35.815 *L 0 *D CLKINVX1

*CAP
1 *16:2 0.00010688
2 *16:4 0.000122149
3 *16:5 6.10744e-05
4 *16:6 4.58058e-05

*RES
1 *16:7 *16:9 0.220714
2 *16:7 *379:Y 1.4
3 *16:6 *16:7 1.4
4 *16:5 *16:6 0.372849
5 *16:4 *16:5 0.124283
6 *16:2 *16:4 0.869982
7 *16:1 *382:C0 1.4
8 *16:1 *16:2 1.4
9 *16:0 *16:1 0.220714
*END

*D_NET *17 0.0029663

*CONN
*I *383:Y O *C 32.045 9.135 *L 0 *D CLKINVX20
*I *633:B I *C 31.755 14.645 *L 0.0165 *D NOR2X6
*I *627:B I *C 35.525 14.645 *L 0.0165 *D NOR2X6
*I *514:B I *C 37.265 32.915 *L 0.011 *D NAND2X4

*CAP
1 *17:0 0.000287285
2 *17:1 1.43642e-05
3 *17:2 0.000272921
4 *17:5 2.87285e-05
5 *17:6 4.30927e-05
6 *17:7 0.000201099
7 *17:8 0.000186735
8 *17:10 0.000966038
9 *17:11 0.000966038

*RES
1 *17:11 *514:B 1.4
2 *17:10 *17:11 7.82994
3 *627:B *17:10 1.4
4 *17:8 *627:B 1.4
5 *17:7 *17:8 1.61568
6 *17:6 *17:7 0.124283
7 *17:5 *17:6 0.248567
8 *383:Y *17:5 1.4
9 *17:2 *633:B 1.4
10 *17:1 *383:Y 1.4
11 *17:0 *17:2 2.36138
12 *17:0 *17:1 0.124283
*END

*D_NET *18 0.000394653

*CONN
*I *385:AN I *C 21.025 35.525 *L 0.00174 *D NOR2BX1
*I *384:Y O *C 22.765 37.555 *L 0 *D NAND2XL

*CAP
1 *18:1 7.55105e-05
2 *18:2 7.55105e-05
3 *18:3 9.16115e-05
4 *18:4 9.16115e-05
5 *18:5 3.02042e-05
6 *18:6 3.02042e-05

*RES
1 *18:6 *384:Y 1.4
2 *18:5 *18:6 0.248567
3 *18:4 *18:5 1.4
4 *18:3 *18:4 0.745699
5 *18:2 *18:3 1.4
6 *18:1 *18:2 0.621418
7 *385:AN *18:1 1.4
*END

*D_NET *19 0.000574213

*CONN
*I *595:B I *C 21.895 32.335 *L 0.00284 *D NAND2X1
*I *386:Y O *C 22.475 27.405 *L 0 *D CLKBUFX2

*CAP
1 *19:0 0.000105715
2 *19:1 0.000181225
3 *19:2 9.06127e-05
4 *19:3 0.000166123
5 *19:5 1.52686e-05
6 *386:Y 1.52686e-05

*RES
1 *19:5 *386:Y 0.124283
2 *19:3 *19:5 1.4
3 *19:2 *595:B 1.4
4 *19:1 *19:3 1.36712
5 *19:0 *19:2 0.745702
6 *19:0 *19:1 0.124284
*END

*D_NET *20 0.0023317

*CONN
*I *607:B I *C 42.195 59.015 *L 0.011 *D NAND2X4
*I *678:B I *C 37.265 59.015 *L 0.0109 *D NOR2X4
*I *387:Y O *C 41.325 64.525 *L 0 *D CLKINVX12
*I *575:B I *C 41.905 53.215 *L 0.00158 *D NAND4XL
*I *429:A1 I *C 34.655 56.985 *L 0.00171 *D AOI22XL

*CAP
1 *20:1 0.000102595
2 *20:2 0.000131908
3 *20:3 0.000203913
4 *20:5 0.000278473
5 *20:6 0.000203913
6 *20:7 0.000102595
7 *20:8 0.000175878
8 *20:9 7.32825e-05
9 *20:10 0.000102595
10 *20:11 0.000234504
11 *20:12 7.32825e-05
12 *20:14 8.7939e-05
13 *20:15 0.000219847
14 *20:16 0.000141171
15 *20:19 0.000141171
16 *20:20 2.9313e-05
17 *20:21 2.9313e-05

*RES
1 *20:21 *429:A1 1.4
2 *20:20 *20:21 0.248574
3 *20:19 *20:20 1.4
4 *20:16 *20:19 1.1186
5 *20:15 *575:B 1.4
6 *20:14 *387:Y 1.4
7 *20:12 *20:16 1.4
8 *20:11 *20:15 1.8643
9 *20:10 *20:14 0.745721
10 *20:9 *678:B 1.4
11 *20:9 *20:12 0.621434
12 *20:8 *20:11 0.124287
13 *20:7 *20:10 0.124287
14 *20:6 *20:9 1.4
15 *20:5 *20:8 1.36715
16 *20:5 *20:7 0.745721
17 *20:3 *20:6 1.61575
18 *20:2 *20:5 0.248574
19 *20:1 *607:B 1.4
20 *20:1 *20:3 1.4
21 *20:1 *20:2 0.870007
22 *20:0 *20:1 0.220714
*END

*D_NET *21 0.000420568

*CONN
*I *390:A1 I *C 60.755 27.695 *L 0.0107 *D OAI21X4
*I *389:Y O *C 63.365 27.985 *L 0 *D NAND2X2

*CAP
1 *21:1 1.50078e-05
2 *21:2 1.50078e-05
3 *21:4 0.000195276
4 *21:5 0.000195276

*RES
1 *21:6 *21:8 0.03
2 *21:6 *389:Y 1.4
3 *21:5 *21:6 1.4
4 *21:4 *21:5 1.61568
5 *21:2 *21:4 1.4
6 *21:1 *390:A1 1.4
7 *21:1 *21:2 0.124289
8 *21:0 *21:1 0.0642857
*END

*D_NET *22 0.000420541

*CONN
*I *389:B I *C 63.945 27.695 *L 0.00534 *D NAND2X2
*I *388:Y O *C 66.265 27.985 *L 0 *D NAND2X2

*CAP
1 *22:1 1.50078e-05
2 *22:2 0.000180255
3 *22:3 1.50078e-05
4 *22:4 0.000180255
5 *22:6 1.50078e-05
6 *22:7 1.50078e-05

*RES
1 *22:7 *388:Y 1.4
2 *22:6 *22:8 0.0878571
3 *22:6 *22:7 0.124289
4 *22:4 *22:6 1.4
5 *22:3 *389:B 1.4
6 *22:2 *22:4 1.4914
7 *22:1 *22:3 0.124289
8 *22:1 *22:2 1.4
9 *22:0 *22:1 0.0878571
*END

*D_NET *23 0.000237494

*CONN
*I *391:Y O *C 38.715 30.885 *L 0 *D INVX2
*I *362:A I *C 38.715 32.625 *L 0.00273 *D CLKINVX1

*CAP
1 *23:1 0.000118747
2 *23:2 0.000118747

*RES
1 *23:2 *362:A 1.4
2 *23:1 *23:2 0.870011
3 *391:Y *23:1 1.4
*END

*D_NET *24 0.00010463

*CONN
*I *598:A I *C 20.155 22.475 *L 0.00564 *D NOR2X2
*I *393:Y O *C 21.025 21.895 *L 0 *D BUFX3

*CAP
1 *598:A 2.61574e-05
2 *24:1 3.92361e-05
3 *24:2 2.61574e-05
4 *393:Y 1.30787e-05

*RES
1 *24:2 *393:Y 0.124284
2 *24:1 *24:2 0.124284
3 *598:A *24:1 0.248568
*END

*D_NET *25 0.000630892

*CONN
*I *397:B I *C 59.595 48.575 *L 0.00534 *D NAND2X2
*I *396:Y O *C 62.495 48.865 *L 0 *D NAND2X2

*CAP
1 *25:2 1.50212e-05
2 *25:3 1.50212e-05
3 *25:4 0.000195276
4 *25:5 7.51062e-05
5 *25:6 0.000195276
6 *397:B 6.00849e-05
7 *25:8 4.50637e-05
8 *25:9 3.00425e-05

*RES
1 *25:10 *25:12 0.03
2 *25:10 *396:Y 1.4
3 *25:9 *25:10 1.4
4 *25:8 *25:9 0.248566
5 *25:6 *25:8 0.124283
6 *25:5 *397:B 0.497133
7 *25:4 *25:6 1.4914
8 *25:3 *25:5 0.124283
9 *25:2 *25:4 0.124283
10 *25:1 *25:3 1.4
11 *25:1 *25:2 1.4
12 *25:0 *25:1 0.220714
*END

*D_NET *26 0.00513975

*CONN
*I *449:A1 I *C 44.225 53.505 *L 0.00278 *D AOI21X1
*I *538:B I *C 52.635 53.795 *L 0.0109 *D NOR2X4
*I *440:A0 I *C 45.095 56.405 *L 0.00267 *D OAI211X1
*I *366:A I *C 55.245 53.795 *L 0.0111 *D NOR2X4
*I *457:A0 I *C 46.545 56.695 *L 0.00265 *D AOI21X1
*I *574:B I *C 43.355 51.475 *L 0.00278 *D NAND4X1
*I *367:B I *C 55.825 56.405 *L 0.0219 *D NOR2X8
*I *536:A0 I *C 36.105 48.285 *L 0.00265 *D AOI21X1
*I *404:Y O *C 60.465 59.305 *L 0 *D CLKINVX20
*I *477:B I *C 33.785 45.965 *L 0.00534 *D NAND2X2
*I *588:A I *C 31.755 48.285 *L 0.00267 *D NAND2X1

*CAP
1 *26:2 4.70569e-05
2 *26:4 0.000450246
3 *26:6 8.90927e-05
4 *26:7 0.000516534
5 *26:8 0.000131908
6 *26:9 8.90927e-05
7 *26:10 0.000188907
8 *26:12 0.000131908
9 *26:13 5.27877e-05
10 *26:14 8.81568e-05
11 *26:18 7.84282e-05
12 *26:20 0.000510281
13 *26:21 0.000138532
14 *26:24 7.84282e-05
15 *26:25 0.000457494
16 *26:26 3.39278e-05
17 *26:27 0.000125938
18 *26:29 8.48194e-05
19 *26:30 3.39278e-05
20 *26:31 0.000104206
21 *26:34 0.000101783
22 *26:36 0.000234464
23 *26:37 0.000152675
24 *26:38 0.000156309
25 *26:40 0.000169639
26 *26:41 2.60516e-05
27 *26:42 5.08916e-05
28 *26:45 1.69639e-05
29 *26:46 1.75959e-05
30 *26:47 0.000140767
31 *26:48 0.000211151
32 *26:49 8.79795e-05
33 *26:50 8.48194e-05
34 *26:51 5.08916e-05
35 *26:52 8.48194e-05
36 *26:53 5.08916e-05
37 *26:55 3.51918e-05
38 *588:A 3.51918e-05

*RES
1 *26:55 *588:A 0.248566
2 *26:53 *26:55 1.4
3 *26:52 *477:B 1.4
4 *26:51 *26:53 0.372862
5 *26:50 *26:52 0.621437
6 *26:49 *26:51 1.4
7 *26:48 *26:50 1.4
8 *26:48 *26:49 0.621415
9 *26:47 *26:48 0.86998
10 *26:46 *26:47 0.124283
11 *26:45 *26:46 1.4
12 *26:42 *26:45 0.124287
13 *26:41 *404:Y 1.4
14 *26:40 *536:A0 1.4
15 *26:40 *26:42 0.248575
16 *26:38 *26:41 0.248578
17 *26:37 *26:40 0.994299
18 *26:36 *367:B 1.4
19 *26:36 *26:38 1.24289
20 *26:34 *26:37 0.124287
21 *26:31 *26:36 0.99431
22 *26:30 *574:B 1.4
23 *26:29 *26:34 0.621437
24 *26:28 *457:A0 1.4
25 *26:28 *26:32 0.220714
26 *26:27 *26:31 1.4
27 *26:26 *26:30 0.248575
28 *26:25 *26:29 1.4
29 *26:24 *26:28 1.4
30 *26:21 *26:27 1.24289
31 *26:20 *26:26 1.4
32 *26:20 *26:25 3.23136
33 *26:18 *26:24 0.621444
34 *26:15 *366:A 1.4
35 *26:15 *26:22 0.220714
36 *26:14 *26:21 0.124289
37 *26:13 *26:20 0.372849
38 *26:12 *440:A0 1.4
39 *26:12 *26:18 1.4
40 *26:11 *538:B 1.4
41 *26:11 *26:16 0.220714
42 *26:10 *26:15 1.4
43 *26:10 *26:14 0.745732
44 *26:9 *26:13 1.4
45 *26:8 *26:12 1.11858
46 *26:7 *26:11 1.4
47 *26:7 *26:10 1.1186
48 *26:6 *26:9 0.745721
49 *26:4 *26:8 1.4
50 *26:4 *26:7 3.23151
51 *26:2 *26:6 1.4
52 *26:2 *26:5 0.220714
53 *26:2 *26:4 0.372866
54 *26:1 *449:A1 1.4
55 *26:1 *26:2 1.4
56 *26:0 *26:1 0.03
*END

*D_NET *27 0.00810336

*CONN
*I *606:B0 I *C 40.165 46.255 *L 0.00281 *D AOI33X1
*I *442:A0 I *C 45.965 46.255 *L 0.00271 *D OAI21X1
*I *469:B1 I *C 34.655 43.065 *L 0.00283 *D AOI22X1
*I *652:B I *C 56.405 45.965 *L 0.0165 *D NOR2X6
*I *484:A I *C 45.675 43.065 *L 0.00162 *D NOR2XL
*I *432:B0 I *C 32.045 51.475 *L 0.00266 *D AOI32X1
*I *572:B I *C 47.995 53.795 *L 0.0109 *D NOR2X4
*I *475:B I *C 46.255 61.625 *L 0.011 *D NAND2X4
*I *405:Y O *C 47.995 64.525 *L 0 *D CLKINVX20
*I *473:B I *C 42.775 61.625 *L 0.00167 *D NAND2XL
*I *558:B I *C 42.775 38.135 *L 0.0109 *D NOR2X4
*I *679:A1 I *C 41.035 61.625 *L 0.00527 *D AOI21X2

*CAP
1 *27:2 0.000492685
2 *27:4 0.000351918
3 *27:5 0.000334322
4 *27:6 0.000316726
5 *27:7 5.08916e-05
6 *27:8 0.000288386
7 *27:9 0.00059612
8 *27:10 0.000118747
9 *27:11 6.78555e-05
10 *27:12 0.000118747
11 *27:13 0.000169639
12 *27:14 0.000416021
13 *27:15 0.000472949
14 *27:17 0.000135711
15 *27:19 0.00030535
16 *27:20 0.000158363
17 *27:22 0.000841059
18 *27:24 6.78555e-05
19 *27:25 0.00030535
20 *27:26 0.000158363
21 *27:27 0.000425038
22 *27:31 5.08916e-05
23 *27:32 6.78555e-05
24 *27:33 0.000203567
25 *27:34 0.000141171
26 *27:36 2.9313e-05
27 *27:38 5.08916e-05
28 *27:39 0.000203567
29 *27:40 4.70569e-05
30 *27:41 0.000282342
31 *27:42 2.9313e-05
32 *27:45 0.000146565
33 *27:46 0.000282342
34 *27:50 6.78555e-05
35 *27:51 0.000146565
36 *27:52 9.41139e-05
37 *27:56 6.78555e-05

*RES
1 *27:58 *679:A1 1.4
2 *27:58 *27:62 0.03
3 *27:56 *558:B 1.4
4 *27:53 *473:B 1.4
5 *27:53 *27:59 0.220714
6 *27:52 *27:58 1.4
7 *27:51 *405:Y 1.4
8 *27:50 *27:56 0.497149
9 *27:47 *475:B 1.4
10 *27:47 *27:54 0.220714
11 *27:46 *27:53 1.4
12 *27:46 *27:52 0.745733
13 *27:45 *27:51 1.24287
14 *27:43 *27:50 1.4
15 *27:43 *27:49 0.220714
16 *27:42 *572:B 1.4
17 *27:41 *27:47 1.4
18 *27:41 *27:46 1.49147
19 *27:40 *27:45 1.4
20 *27:39 *432:B0 1.4
21 *27:38 *27:43 1.4
22 *27:36 *27:42 0.248574
23 *27:34 *27:41 0.745733
24 *27:34 *27:40 0.372866
25 *27:33 *27:39 1.49145
26 *27:32 *27:38 0.372862
27 *27:31 *484:A 1.4
28 *27:28 *27:36 1.4
29 *27:28 *27:35 0.220714
30 *27:27 *27:34 1.4
31 *27:26 *27:33 1.4
32 *27:25 *27:32 0.124287
33 *27:24 *27:31 0.372862
34 *27:23 *652:B 1.4
35 *27:23 *27:29 0.220714
36 *27:22 *27:28 1.4
37 *27:22 *27:27 3.60432
38 *27:20 *27:26 1.11855
39 *27:19 *27:25 2.11288
40 *27:17 *27:24 0.124287
41 *27:15 *27:23 1.4
42 *27:14 *27:22 3.10718
43 *27:13 *469:B1 1.4
44 *27:12 *27:20 1.4
45 *27:11 *27:19 0.124287
46 *27:10 *442:A0 1.4
47 *27:10 *27:17 0.870011
48 *27:10 *27:16 0.220714
49 *27:9 *27:15 3.60421
50 *27:9 *27:14 1.4
51 *27:8 *27:13 1.24287
52 *27:8 *27:12 0.870011
53 *27:7 *27:11 0.372862
54 *27:6 *27:10 1.4
55 *27:6 *27:9 0.86998
56 *27:5 *27:8 1.4
57 *27:4 *27:7 1.4
58 *27:4 *27:6 1.36711
59 *27:2 *27:5 2.36138
60 *27:2 *27:4 1.11855
61 *27:1 *606:B0 1.4
62 *27:1 *27:2 1.4
63 *27:0 *27:1 0.220714
*END

*D_NET *28 0.00293157

*CONN
*I *568:B I *C 38.425 43.355 *L 0.00534 *D NAND2X2
*I *441:A0 I *C 45.095 43.355 *L 0.00267 *D OAI211X1
*I *452:A0 I *C 48.575 48.285 *L 0.00265 *D AOI21X1
*I *406:Y O *C 47.705 56.115 *L 0 *D CLKINVX20

*CAP
1 *28:1 5.08916e-05
2 *28:2 5.08916e-05
3 *28:3 0.000404706
4 *28:4 0.000615857
5 *28:5 0.000211151
6 *28:6 5.08916e-05
7 *28:7 0.000237494
8 *28:8 5.08916e-05
9 *28:9 0.000237494
10 *452:A0 3.51918e-05
11 *28:12 3.51918e-05
12 *28:13 3.39278e-05
13 *28:14 6.78555e-05
14 *28:15 0.000426875
15 *28:16 0.000407604
16 *28:17 1.46565e-05

*RES
1 *28:17 *406:Y 1.4
2 *28:16 *28:17 0.124287
3 *28:15 *28:16 3.10718
4 *28:14 *28:15 0.248575
5 *28:13 *28:14 0.248575
6 *28:12 *28:13 1.4
7 *452:A0 *28:12 0.248566
8 *28:9 *452:A0 1.4
9 *28:8 *441:A0 1.4
10 *28:7 *28:9 1.74002
11 *28:6 *28:8 0.372862
12 *28:5 *28:7 1.4
13 *28:4 *28:6 1.4
14 *28:4 *28:5 1.49139
15 *28:3 *28:4 2.85851
16 *28:2 *28:3 1.4
17 *28:1 *28:2 0.372862
18 *568:B *28:1 1.4
*END

*D_NET *29 0.00123532

*CONN
*I *407:Y O *C 30.885 12.325 *L 0 *D CLKINVX20
*I *633:A I *C 32.335 14.645 *L 0.0166 *D NOR2X6
*I *627:A I *C 34.945 14.645 *L 0.0166 *D NOR2X6
*I *569:B I *C 35.525 22.475 *L 0.00534 *D NAND2X2

*CAP
1 *29:1 0.000114914
2 *29:2 8.61854e-05
3 *29:3 0.000114914
4 *29:4 0.000416563
5 *29:6 0.000359106
6 *29:8 8.61854e-05
7 *29:9 5.7457e-05

*RES
1 *29:9 *569:B 1.4
2 *29:8 *29:9 0.497133
3 *29:6 *29:8 0.248567
4 *29:4 *627:A 1.4
5 *29:4 *29:6 2.85852
6 *29:3 *633:A 1.4
7 *29:2 *29:4 0.7457
8 *29:1 *29:3 0.994266
9 *407:Y *29:2 1.4
10 *407:Y *29:1 1.4
*END

*D_NET *30 0.00416091

*CONN
*I *561:A I *C 50.605 45.965 *L 0.0111 *D NOR2X4
*I *369:A I *C 51.765 48.575 *L 0.0215 *D NOR2X8
*I *408:Y O *C 52.925 14.355 *L 0 *D CLKINVX20

*CAP
1 *30:0 0.000101783
2 *30:1 0.000101783
3 *30:2 6.78555e-05
4 *30:3 0.000186603
5 *30:4 6.78555e-05
6 *30:6 0.000186603
7 *30:7 0.0006107
8 *30:8 6.78555e-05
9 *30:9 0.0006107
10 *30:10 5.08916e-05
11 *30:11 0.000617331
12 *30:13 0.000614731
13 *30:14 0.000445291
14 *30:15 0.000430927

*RES
1 *30:15 *408:Y 1.4
2 *30:14 *30:15 3.7285
3 *30:13 *30:14 0.124283
4 *30:11 *30:13 4.59859
5 *30:10 *369:A 1.4
6 *30:9 *30:11 0.124287
7 *30:8 *30:10 0.372862
8 *30:7 *30:9 4.35006
9 *30:6 *30:8 0.124287
10 *30:4 *30:7 0.124287
11 *30:3 *30:6 1.24287
12 *30:2 *561:A 1.4
13 *30:1 *30:4 0.372862
14 *30:1 *30:3 0.124287
15 *30:0 *30:2 0.497149
16 *30:0 *30:1 0.248575
*END

*D_NET *31 0.00619627

*CONN
*I *613:B I *C 37.555 38.135 *L 0.00169 *D AND2XL
*I *570:B I *C 35.235 38.135 *L 0.00534 *D NAND2X2
*I *469:A1 I *C 35.235 42.775 *L 0.0028 *D AOI22X1
*I *558:A I *C 41.035 38.135 *L 0.0111 *D NOR2X4
*I *513:A I *C 38.715 48.285 *L 0.00263 *D NOR2X1
*I *567:B I *C 32.625 37.845 *L 0.0028 *D NOR2X1
*I *652:A I *C 55.825 45.965 *L 0.0166 *D NOR2X6
*I *377:Y O *C 60.755 45.675 *L 0 *D INVX20
*I *497:C I *C 59.305 41.035 *L 0.0227 *D NAND3X8

*CAP
1 *31:2 0.000211151
2 *31:3 7.03836e-05
3 *31:4 0.000193555
4 *31:5 7.03836e-05
5 *613:B 7.03836e-05
6 *31:7 0.000424097
7 *31:8 5.27877e-05
8 *31:9 0.000271422
9 *31:10 0.000424097
10 *31:12 0.000271422
11 *570:B 0.000105575
12 *31:14 0.000598261
13 *31:16 8.79795e-05
14 *31:18 0.000105575
15 *31:19 0.000615857
16 *31:21 0.000169639
17 *558:A 8.79795e-05
18 *31:23 5.08916e-05
19 *31:24 0.000335183
20 *31:25 0.000169639
21 *31:26 5.08916e-05
22 *31:27 0.000332608
23 *31:30 0.000105149
24 *31:31 0.000285403
25 *31:32 0.000330467
26 *31:33 3.00157e-05
27 *31:34 0.000135191
28 *31:35 0.000165086
29 *31:36 3.00157e-05
30 *31:37 1.50078e-05
31 *31:38 0.000180094
32 *31:40 1.50078e-05
33 *31:41 7.50392e-05
34 *31:44 6.00314e-05

*RES
1 *31:44 *497:C 1.4
2 *31:41 *31:44 0.497155
3 *31:40 *31:43 0.212143
4 *31:40 *377:Y 1.4
5 *31:38 *31:41 0.124289
6 *31:37 *31:40 0.124289
7 *31:36 *652:A 1.4
8 *31:35 *31:38 1.36718
9 *31:34 *31:37 1.4
10 *31:33 *31:36 0.248578
11 *31:32 *31:35 1.4
12 *31:32 *31:34 1.11855
13 *31:31 *31:33 1.4
14 *31:31 *31:32 1.61568
15 *31:30 *31:31 0.745699
16 *31:27 *31:30 0.124283
17 *31:26 *567:B 1.4
18 *31:25 *513:A 1.4
19 *31:24 *31:27 2.36138
20 *31:23 *31:26 0.372862
21 *31:21 *31:25 1.24287
22 *31:19 *31:24 0.124283
23 *31:18 *31:23 1.4
24 *31:16 *558:A 0.621415
25 *31:14 *31:21 1.4
26 *31:14 *31:20 0.220714
27 *31:14 *31:19 4.22562
28 *570:B *31:18 0.745697
29 *31:12 *469:A1 1.4
30 *31:11 *31:16 1.4