*SPEF "IEEE 1481-1998"
*DESIGN "async_fifo"
*DATE "Wed Jul  1 14:42:15 2026"
*VENDOR "Cadence Design Systems, Inc."
*PROGRAM "Innovus"
*VERSION "21.15-s110_1"
*DESIGN_FLOW "PIN_CAP NONE" "NAME_SCOPE LOCAL"
*DIVIDER /
*DELIMITER :
*BUS_DELIMITER []
*T_UNIT 1 NS
*C_UNIT 1 PF
*R_UNIT 1 OHM
*L_UNIT 1 HENRY

// MMMC spef file for corner 'rc_corner'

*NAME_MAP

*1 wreq
*2 wclk
*3 wrst_n
*4 rreq
*5 rclk
*6 rrst_n
*7 wdata[7]
*8 wdata[6]
*9 wdata[5]
*10 wdata[4]
*11 wdata[3]
*12 wdata[2]
*13 wdata[1]
*14 wdata[0]
*15 rdata[7]
*16 rdata[6]
*17 rdata[5]
*18 rdata[4]
*19 rdata[3]
*20 rdata[2]
*21 rdata[1]
*22 rdata[0]
*23 wfull
*24 rempty
*25 FE_DBTN1_n_544
*26 FE_DBTN0_n_651
*27 wptr[3]
*28 wptr[2]
*29 wptr[1]
*30 wptr[0]
*31 wq2_rptr[3]
*32 wq2_rptr[2]
*33 wq2_rptr[1]
*34 wq2_rptr[0]
*35 rq2_wptr[3]
*36 rq2_wptr[2]
*37 rq2_wptr[1]
*38 rq2_wptr[0]
*39 wq1_rptr[3]
*40 wq1_rptr[2]
*41 wq1_rptr[1]
*42 wq1_rptr[0]
*43 rq1_wptr[3]
*44 rq1_wptr[2]
*45 rq1_wptr[1]
*46 rq1_wptr[0]
*47 rptr[3]
*48 rptr[2]
*49 rptr[1]
*50 rptr[0]
*51 mem\[12\][7]
*52 mem\[12\][6]
*53 mem\[12\][5]
*54 mem\[12\][4]
*55 mem\[12\][3]
*56 mem\[12\][2]
*57 mem\[12\][1]
*58 mem\[12\][0]
*59 mem\[10\][7]
*60 mem\[10\][6]
*61 mem\[10\][5]
*62 mem\[10\][4]
*63 mem\[10\][3]
*64 mem\[10\][2]
*65 mem\[10\][1]
*66 mem\[10\][0]
*67 mem\[14\][7]
*68 mem\[14\][6]
*69 mem\[14\][5]
*70 mem\[14\][4]
*71 mem\[14\][3]
*72 mem\[14\][2]
*73 mem\[14\][1]
*74 mem\[14\][0]
*75 mem\[2\][7]
*76 mem\[2\][6]
*77 mem\[2\][5]
*78 mem\[2\][4]
*79 mem\[2\][3]
*80 mem\[2\][2]
*81 mem\[2\][1]
*82 mem\[2\][0]
*83 mem\[11\][7]
*84 mem\[11\][6]
*85 mem\[11\][5]
*86 mem\[11\][4]
*87 mem\[11\][3]
*88 mem\[11\][2]
*89 mem\[11\][1]
*90 mem\[11\][0]
*91 mem\[0\][7]
*92 mem\[0\][6]
*93 mem\[0\][5]
*94 mem\[0\][4]
*95 mem\[0\][3]
*96 mem\[0\][2]
*97 mem\[0\][1]
*98 mem\[0\][0]
*99 mem\[13\][7]
*100 mem\[13\][6]
*101 mem\[13\][5]
*102 mem\[13\][4]
*103 mem\[13\][3]
*104 mem\[13\][2]
*105 mem\[13\][1]
*106 mem\[13\][0]
*107 mem\[8\][7]
*108 mem\[8\][6]
*109 mem\[8\][5]
*110 mem\[8\][4]
*111 mem\[8\][3]
*112 mem\[8\][2]
*113 mem\[8\][1]
*114 mem\[8\][0]
*115 mem\[9\][7]
*116 mem\[9\][6]
*117 mem\[9\][5]
*118 mem\[9\][4]
*119 mem\[9\][3]
*120 mem\[9\][2]
*121 mem\[9\][1]
*122 mem\[9\][0]
*123 mem\[4\][7]
*124 mem\[4\][6]
*125 mem\[4\][5]
*126 mem\[4\][4]
*127 mem\[4\][3]
*128 mem\[4\][2]
*129 mem\[4\][1]
*130 mem\[4\][0]
*131 mem\[6\][7]
*132 mem\[6\][6]
*133 mem\[6\][5]
*134 mem\[6\][4]
*135 mem\[6\][3]
*136 mem\[6\][2]
*137 mem\[6\][1]
*138 mem\[6\][0]
*139 mem\[1\][7]
*140 mem\[1\][6]
*141 mem\[1\][5]
*142 mem\[1\][4]
*143 mem\[1\][3]
*144 mem\[1\][2]
*145 mem\[1\][1]
*146 mem\[1\][0]
*147 mem\[3\][7]
*148 mem\[3\][6]
*149 mem\[3\][5]
*150 mem\[3\][4]
*151 mem\[3\][3]
*152 mem\[3\][2]
*153 mem\[3\][1]
*154 mem\[3\][0]
*155 rbin[4]
*156 rbin[3]
*157 rbin[2]
*158 rbin[1]
*159 rbin[0]
*160 mem\[5\][7]
*161 mem\[5\][6]
*162 mem\[5\][5]
*163 mem\[5\][4]
*164 mem\[5\][3]
*165 mem\[5\][2]
*166 mem\[5\][1]
*167 mem\[5\][0]
*168 wbin[4]
*169 wbin[3]
*170 wbin[2]
*171 wbin[1]
*172 wbin[0]
*173 mem\[15\][7]
*174 mem\[15\][6]
*175 mem\[15\][5]
*176 mem\[15\][4]
*177 mem\[15\][3]
*178 mem\[15\][2]
*179 mem\[15\][1]
*180 mem\[15\][0]
*181 mem\[7\][7]
*182 mem\[7\][6]
*183 mem\[7\][5]
*184 mem\[7\][4]
*185 mem\[7\][3]
*186 mem\[7\][2]
*187 mem\[7\][1]
*188 mem\[7\][0]
*189 UNCONNECTED
*190 n_0
*191 n_1
*192 n_2
*193 n_3
*194 n_5
*195 n_9
*196 n_11
*197 n_12
*198 n_13
*199 n_16
*200 n_17
*201 n_18
*202 n_20
*203 n_25
*204 n_31
*205 n_32
*206 n_34
*207 n_35
*208 n_37
*209 n_39
*210 n_43
*211 n_47
*212 n_49
*213 n_53
*214 n_55
*215 n_56
*216 n_57
*217 n_58
*218 n_59
*219 n_61
*220 n_62
*221 n_63
*222 n_64
*223 n_65
*224 n_66
*225 n_68
*226 n_69
*227 n_70
*228 n_71
*229 n_72
*230 n_73
*231 n_77
*232 n_78
*233 n_79
*234 n_80
*235 n_81
*236 n_82
*237 n_83
*238 n_84
*239 n_85
*240 n_86
*241 n_88
*242 n_90
*243 n_91
*244 n_93
*245 n_94
*246 n_95
*247 n_96
*248 n_97
*249 n_98
*250 n_100
*251 n_101
*252 n_102
*253 n_104
*254 n_108
*255 n_109
*256 n_111
*257 n_112
*258 n_114
*259 n_117
*260 n_118
*261 n_120
*262 n_121
*263 n_124
*264 n_125
*265 n_130
*266 n_133
*267 n_134
*268 n_135
*269 n_136
*270 n_138
*271 n_142
*272 n_145
*273 n_148
*274 n_151
*275 n_152
*276 n_154
*277 n_156
*278 n_159
*279 n_169
*280 n_170
*281 n_172
*282 n_173
*283 n_179
*284 n_183
*285 n_188
*286 n_189
*287 n_190
*288 n_191
*289 n_192
*290 n_199
*291 n_200
*292 n_202
*293 n_204
*294 n_205
*295 n_206
*296 n_207
*297 n_208
*298 n_209
*299 n_210
*300 n_215
*301 n_217
*302 n_218
*303 n_228
*304 n_230
*305 n_231
*306 n_235
*307 n_238
*308 n_239
*309 n_241
*310 n_242
*311 n_244
*312 n_246
*313 n_285
*314 n_291
*315 n_321
*316 n_323
*317 n_325
*318 n_346
*319 n_352
*320 n_354
*321 n_355
*322 n_356
*323 n_364
*324 n_377
*325 n_380
*326 n_381
*327 n_382
*328 n_387
*329 n_390
*330 n_391
*331 n_392
*332 n_400
*333 n_405
*334 n_422
*335 n_423
*336 n_428
*337 n_431
*338 n_436
*339 n_437
*340 n_440
*341 n_441
*342 n_443
*343 n_444
*344 n_449
*345 n_450
*346 n_451
*347 n_452
*348 n_459
*349 n_460
*350 n_466
*351 n_467
*352 n_468
*353 n_469
*354 n_470
*355 n_471
*356 n_472
*357 n_475
*358 n_476
*359 n_478
*360 n_479
*361 n_480
*362 n_481
*363 n_482
*364 n_483
*365 n_485
*366 n_486
*367 n_487
*368 n_488
*369 n_489
*370 n_490
*371 n_493
*372 n_495
*373 n_496
*374 n_503
*375 n_504
*376 n_505
*377 n_506
*378 n_508
*379 n_509
*380 n_510
*381 n_511
*382 n_512
*383 n_513
*384 n_514
*385 n_515
*386 n_516
*387 n_520
*388 n_521
*389 n_522
*390 n_525
*391 n_529
*392 n_530
*393 n_531
*394 n_532
*395 n_533
*396 n_536
*397 n_539
*398 n_542
*399 n_544
*400 n_545
*401 n_552
*402 n_553
*403 n_554
*404 n_555
*405 n_556
*406 n_557
*407 n_558
*408 n_559
*409 n_629
*410 n_633
*411 n_636
*412 n_637
*413 n_650
*414 n_651
*415 n_657
*416 n_659
*417 n_661
*418 n_664
*419 n_666
*420 n_668
*421 n_711
*422 n_712
*423 n_713
*424 n_715
*425 n_721
*426 n_728
*427 n_735
*428 n_737
*429 n_742
*430 n_743
*431 n_744
*432 n_745
*433 n_746
*434 n_747
*435 n_748
*436 n_749
*437 n_750
*438 n_751
*439 n_753
*440 n_793
*441 n_794
*442 n_795
*443 n_799
*444 n_800
*445 n_806
*446 n_807
*447 n_810
*448 n_811
*449 n_814
*450 n_815
*451 n_819
*452 n_821
*453 count[0]
*454 count[1]
*455 count[2]
*456 count[3]
*457 count[4]
*458 count[5]
*459 count[6]
*460 count[7]
*461 FE_DBTC1_n_544
*462 FE_DBTC0_n_651
*463 wfull_reg
*464 g12412__2398
*465 g12414__6260
*466 g12415__8428
*467 g12416__5526
*468 g12422__3680
*469 g12417__1617
*470 g12418__5122
*471 g12425__6131
*472 wq2_rptr_reg\[1\]
*473 wq2_rptr_reg\[2\]
*474 g12431__1881
*475 wq2_rptr_reg\[3\]
*476 rq2_wptr_reg\[1\]
*477 rq2_wptr_reg\[2\]
*478 wq1_rptr_reg\[2\]
*479 wq1_rptr_reg\[1\]
*480 rq1_wptr_reg\[3\]
*481 wq2_rptr_reg\[0\]
*482 wq1_rptr_reg\[3\]
*483 rq2_wptr_reg\[0\]
*484 rq1_wptr_reg\[2\]
*485 rq1_wptr_reg\[1\]
*486 rptr_reg\[2\]
*487 rptr_reg\[1\]
*488 rq1_wptr_reg\[0\]
*489 wq1_rptr_reg\[0\]
*490 rptr_reg\[3\]
*491 wptr_reg\[3\]
*492 mem_reg\[12\]\[5\]
*493 wptr_reg\[1\]
*494 mem_reg\[10\]\[1\]
*495 mem_reg\[12\]\[7\]
*496 mem_reg\[10\]\[0\]
*497 mem_reg\[12\]\[0\]
*498 mem_reg\[12\]\[1\]
*499 mem_reg\[12\]\[2\]
*500 mem_reg\[12\]\[3\]
*501 mem_reg\[12\]\[4\]
*502 mem_reg\[12\]\[6\]
*503 wptr_reg\[2\]
*504 mem_reg\[10\]\[2\]
*505 mem_reg\[14\]\[1\]
*506 mem_reg\[14\]\[2\]
*507 mem_reg\[14\]\[3\]
*508 mem_reg\[14\]\[4\]
*509 mem_reg\[14\]\[5\]
*510 mem_reg\[14\]\[0\]
*511 mem_reg\[14\]\[7\]
*512 mem_reg\[10\]\[3\]
*513 mem_reg\[10\]\[4\]
*514 mem_reg\[10\]\[5\]
*515 mem_reg\[10\]\[6\]
*516 mem_reg\[10\]\[7\]
*517 mem_reg\[14\]\[6\]
*518 mem_reg\[2\]\[4\]
*519 mem_reg\[11\]\[2\]
*520 wptr_reg\[0\]
*521 mem_reg\[0\]\[5\]
*522 mem_reg\[0\]\[7\]
*523 mem_reg\[0\]\[2\]
*524 mem_reg\[13\]\[7\]
*525 mem_reg\[13\]\[4\]
*526 mem_reg\[11\]\[6\]
*527 mem_reg\[8\]\[2\]
*528 mem_reg\[11\]\[5\]
*529 mem_reg\[2\]\[0\]
*530 mem_reg\[2\]\[1\]
*531 mem_reg\[2\]\[2\]
*532 mem_reg\[2\]\[3\]
*533 mem_reg\[9\]\[6\]
*534 mem_reg\[2\]\[5\]
*535 mem_reg\[2\]\[6\]
*536 mem_reg\[9\]\[2\]
*537 mem_reg\[4\]\[0\]
*538 mem_reg\[4\]\[1\]
*539 mem_reg\[4\]\[2\]
*540 mem_reg\[4\]\[3\]
*541 mem_reg\[4\]\[4\]
*542 mem_reg\[4\]\[5\]
*543 mem_reg\[4\]\[6\]
*544 mem_reg\[6\]\[0\]
*545 mem_reg\[6\]\[1\]
*546 mem_reg\[6\]\[2\]
*547 mem_reg\[6\]\[3\]
*548 mem_reg\[6\]\[4\]
*549 mem_reg\[6\]\[5\]
*550 mem_reg\[6\]\[6\]
*551 rptr_reg\[0\]
*552 mem_reg\[8\]\[1\]
*553 mem_reg\[8\]\[3\]
*554 mem_reg\[8\]\[4\]
*555 mem_reg\[8\]\[5\]
*556 mem_reg\[4\]\[7\]
*557 mem_reg\[8\]\[7\]
*558 mem_reg\[9\]\[0\]
*559 mem_reg\[9\]\[1\]
*560 mem_reg\[9\]\[3\]
*561 mem_reg\[9\]\[4\]
*562 mem_reg\[9\]\[5\]
*563 mem_reg\[9\]\[7\]
*564 mem_reg\[11\]\[4\]
*565 mem_reg\[11\]\[7\]
*566 mem_reg\[13\]\[2\]
*567 mem_reg\[13\]\[0\]
*568 mem_reg\[6\]\[7\]
*569 mem_reg\[13\]\[3\]
*570 mem_reg\[13\]\[1\]
*571 mem_reg\[13\]\[6\]
*572 mem_reg\[13\]\[5\]
*573 mem_reg\[0\]\[4\]
*574 mem_reg\[0\]\[6\]
*575 mem_reg\[0\]\[0\]
*576 mem_reg\[0\]\[1\]
*577 mem_reg\[0\]\[3\]
*578 mem_reg\[11\]\[0\]
*579 mem_reg\[11\]\[1\]
*580 mem_reg\[11\]\[3\]
*581 mem_reg\[8\]\[0\]
*582 mem_reg\[2\]\[7\]
*583 mem_reg\[8\]\[6\]
*584 g12521__5477
*585 g12520__8428
*586 mem_reg\[1\]\[0\]
*587 mem_reg\[1\]\[1\]
*588 mem_reg\[1\]\[4\]
*589 mem_reg\[1\]\[7\]
*590 mem_reg\[1\]\[6\]
*591 mem_reg\[3\]\[0\]
*592 mem_reg\[3\]\[1\]
*593 mem_reg\[3\]\[2\]
*594 mem_reg\[3\]\[4\]
*595 mem_reg\[3\]\[5\]
*596 rbin_reg\[4\]
*597 mem_reg\[5\]\[0\]
*598 mem_reg\[5\]\[1\]
*599 mem_reg\[5\]\[2\]
*600 mem_reg\[5\]\[4\]
*601 mem_reg\[5\]\[5\]
*602 mem_reg\[5\]\[6\]
*603 mem_reg\[5\]\[7\]
*604 mem_reg\[5\]\[3\]
*605 mem_reg\[1\]\[3\]
*606 mem_reg\[3\]\[3\]
*607 mem_reg\[1\]\[5\]
*608 mem_reg\[1\]\[2\]
*609 mem_reg\[3\]\[7\]
*610 mem_reg\[3\]\[6\]
*611 wbin_reg\[2\]
*612 g12600
*613 g12607__6131
*614 g12608__1881
*615 mem_reg\[15\]\[4\]
*616 mem_reg\[15\]\[0\]
*617 rbin_reg\[3\]
*618 mem_reg\[15\]\[2\]
*619 mem_reg\[15\]\[1\]
*620 mem_reg\[15\]\[6\]
*621 mem_reg\[15\]\[7\]
*622 mem_reg\[15\]\[3\]
*623 mem_reg\[15\]\[5\]
*624 rbin_reg\[2\]
*625 g12640
*626 mem_reg\[7\]\[1\]
*627 mem_reg\[7\]\[0\]
*628 mem_reg\[7\]\[7\]
*629 mem_reg\[7\]\[4\]
*630 mem_reg\[7\]\[6\]
*631 mem_reg\[7\]\[3\]
*632 mem_reg\[7\]\[5\]
*633 mem_reg\[7\]\[2\]
*634 rbin_reg\[1\]
*635 g12675__7410
*636 g12669__6417
*637 g12673__5477
*638 g12685__2398
*639 g12687__6260
*640 g12633__5526
*641 g12631__3680
*642 g12621__1705
*643 g12642
*644 g12635__8246
*645 wbin_reg\[1\]
*646 g12694__7098
*647 g12670__6131
*648 g12674__1881
*649 g12693__5115
*650 g12692__7482
*651 g12648__2346
*652 g12649__1666
*653 g12652__5477
*654 g12684__2398
*655 wbin_reg\[0\]
*656 g12656__6260
*657 g12658__4319
*658 g12668__6783
*659 g12666__3680
*660 g12667__1617
*661 g12661__5122
*662 g12696
*663 g12672__6131
*664 g12663__4733
*665 rbin_reg\[0\]
*666 g12671__6161
*667 g12676__9315
*668 g12703__9945
*669 g12702__2883
*670 g12699__2346
*671 g12700__1666
*672 g12701__7410
*673 g12690__5477
*674 g12682__2398
*675 g12727__6260
*676 g12728__4319
*677 g12729__5526
*678 g12731
*679 g12697__3680
*680 g12706__1617
*681 g12707__2802
*682 g12708__1705
*683 g12709__5122
*684 g12710__8246
*685 g12714__7098
*686 g12717__6131
*687 g12719__1881
*688 g12720__5115
*689 g12733__6161
*690 g12730
*691 g12732__9315
*692 g12726__9945
*693 g12750__2883
*694 g12736__2346
*695 g12740__7410
*696 g12741__6417
*697 g12742__5477
*698 g12743__2398
*699 g12747__5107
*700 g12748__6260
*701 g12752__8428
*702 g12753__5526
*703 g12755__6783
*704 g12760__3680
*705 g12761__1617
*706 g12764__1705
*707 g12763__5122
*708 g12705__7098
*709 g12712__1881
*710 g12704__6161
*711 g12738__2883
*712 g12744__1666
*713 g12759__6417
*714 g12751__5477
*715 g12756__5107
*716 g12757__6260
*717 g12762__6783
*718 g12778__3680
*719 g12766__6131
*720 g12774__7482
*721 g12773__6161
*722 g12767__9945
*723 g12801__2883
*724 g12784
*725 g12783
*726 g12796
*727 g12800
*728 g12789__2346
*729 g12795
*730 g12792__6417
*731 g12791__5477
*732 g12797
*733 g12782
*734 g12787__6260
*735 g12809__4319
*736 g12804__5526
*737 g12803__1617
*738 g12788__1705
*739 g12790__5122
*740 g12814
*741 g12813
*742 g12659__13006
*743 g12606__13008
*744 g12605__13010
*745 g124
*746 g13011
*747 g67
*748 g69
*749 g70
*750 g13018
*751 g28
*752 g111
*753 g112
*754 g114
*755 g113
*756 g118
*757 g98
*758 g99
*759 g101
*760 g100
*761 g19
*762 g25
*763 g88
*764 g89
*765 g212
*766 g211
*767 g209
*768 g210
*769 g97
*770 g92
*771 g93
*772 g94
*773 g95
*774 g13035
*775 g13036
*776 g13037
*777 g13038
*778 g197
*779 g198
*780 g139
*781 g132
*782 g13044
*783 g13045
*784 g13046
*785 g137
*786 g13047
*787 g138
*788 g61
*789 g62
*790 g159
*791 g160
*792 g162
*793 g164
*794 g161
*795 g165
*796 g13049
*797 g13050
*798 g13051
*799 g13052
*800 g13053
*801 g13054
*802 g13058
*803 g109
*804 g108
*805 g13063
*806 g120
*807 g13064
*808 g123
*809 g126
*810 g13065
*811 g122
*812 g121
*813 g119
*814 g13066
*815 g75
*816 g76
*817 g77
*818 g79
*819 g78
*820 g80
*821 g81
*822 g13069
*823 g13070
*824 g13072
*825 g183
*826 g169
*827 g170
*828 g180
*829 g174
*830 g182
*831 g179
*832 g175
*833 g177
*834 g35
*835 g34
*836 g104
*837 g105
*838 g106
*839 g13080
*840 g107
*841 g13081
*842 g13082
*843 g13083
*844 g13084
*845 fopt13152
*846 g13156
*847 g13159
*848 g12775__13160
*849 fopt
*850 g12
*851 g14
*852 g18
*853 g13171
*854 fopt13174
*855 g12768__13175
*856 g12660__13177
*857 g13178
*858 g13213
*859 g13214
*860 g13215
*861 g13216
*862 fopt1
*863 g13227
*864 g13233
*865 rq2_wptr_reg\[3\]
*866 rempty_reg
*867 wbin_reg\[4\]
*868 wbin_reg\[3\]
*869 g13249
*870 g13250
*871 g13251
*872 g13252
*873 g13253
*874 g13254
*875 g13255
*876 g13256
*877 g13257
*878 g13258
*879 g3
*880 g13299
*881 g13300
*882 g13302
*883 g13303
*884 g13306
*885 g12619__13307
*886 g13309
*887 g20
*888 g13312
*889 g13313
*890 g1
*891 g13314
*892 g13319
*893 g2
*894 in1
*895 in2
*896 in3
*897 in4
*898 in5
*899 in6
*900 in7
*901 in8
*902 in9
*903 in10
*904 in11
*905 in12
*906 in13
*907 in14
*908 out1
*909 out2
*910 out3
*911 out4
*912 out5
*913 out6
*914 out7
*915 out8
*916 out9
*917 out10


*PORTS

*1 I *C 80.71 272
*2 I *C 80.71 334
*3 I *C 80.71 396
*4 I *C 80.71 458
*5 I *C 80.71 520
*6 I *C 80.71 582
*7 I *C 833.29 272
*8 I *C 644 771.29
*9 I *C 582 771.29
*10 I *C 520 771.29
*11 I *C 458 771.29
*12 I *C 396 771.29
*13 I *C 334 771.29
*14 I *C 272 771.29
*15 O *C 365.7 852
*16 O *C 365.7 852
*17 O *C 365.7 852
*18 O *C 365.7 852
*19 O *C 365.3 852
*20 O *C 365.3 852
*21 O *C 364.5 852
*22 O *C 364.5 852
*23 O *C 457.863 239.638
*24 O *C 519.862 239.638


*D_NET *1 0.0447568

*CONN
*I *894:PAD B *C 80.71 272 *L 0 *D PADDI
*I *894:Y O *C 239.637 274.087 *L 0 *D PADDI
*I *721:A I *C 356.74 392.875 *L 0.0016 *D NAND2X4
*I *718:A I *C 359.81 391.3 *L 0.000792 *D NAND2X2
*I *738:B I *C 360.9 392.825 *L 0.000392 *D NAND2BX1
*I *722:A I *C 359.9 393.015 *L 0.00039 *D NAND2X1

*CAP
1 *1:2 0.00840125
2 *1:3 0.00214397
3 *1:4 0.00840125
4 *894:PAD 0.00214397
5 *1:6 9.0541e-06
6 *1:7 9.0541e-06
7 *1:13 0.00546686
8 *1:15 0.00411791
9 *1:16 0.00134895
10 *1:17 0.00520572
11 *1:18 0.000166686
12 *1:19 0.00523558
13 *1:20 0.000177243
14 *1:21 2.98695e-05
15 *1:22 0.000299479
16 *1:23 0.000185429
17 *894:Y 0.000288922
18 *1:25 0.000234226
19 *1:26 4.87971e-05
20 *1:27 0.000188649
21 *1:29 0.000217452
22 *1:30 8.64098e-05
23 *1:31 2.92782e-05
24 *1:32 5.76066e-05
25 *1:33 5.85565e-05
26 *1:34 2.92782e-05
27 *1:35 4.87971e-05
28 *1:36 5.85565e-05
29 *1:38 4.87971e-05
30 *1:39 9.60109e-06
31 *722:A 9.60109e-06

*RES
1 *1:39 *722:A 0.777116
2 *1:38 *738:B 8.76079
3 *1:36 *1:39 8.76079
4 *1:35 *1:38 3.66941
5 *1:34 *718:A 8.76079
6 *1:33 *1:36 4.40329
7 *1:32 *1:35 8.76079
8 *1:31 *1:34 2.20165
9 *1:30 *1:33 8.76079
10 *1:30 *1:32 4.6627
11 *1:29 *1:31 8.76079
12 *1:29 *1:30 2.33135
13 *1:27 *1:29 13.9976
14 *1:26 *721:A 8.76079
15 *1:25 *1:27 8.76079
16 *1:25 *1:26 3.66941
17 *1:23 *1:25 13.9438
18 *1:22 *894:Y 20.1836
19 *1:21 *1:23 8.76079
20 *1:20 *1:22 0.737476
21 *1:19 *1:21 2.21629
22 *1:18 *1:20 11.6444
23 *1:17 *1:19 417.139
24 *1:16 *1:18 8.76079
25 *1:15 *1:17 8.76079
26 *1:13 *1:16 109.915
27 *1:13 *1:15 329.776
28 *1:11 *1:14 1.07147
29 *1:11 *1:13 8.76079
30 *1:9 *1:12 1.07147
31 *1:9 *1:11 8.76079
32 *1:8 *1:10 0.372342
33 *1:8 *1:9 2.16491
34 *1:7 *1:8 2.16491
35 *1:6 *1:7 0.737705
36 *1:4 *1:6 0.59663
37 *1:3 *894:PAD 126.481
38 *1:2 *1:4 652.212
39 *1:1 *1:3 0.0801725
40 *1:1 *1:2 0.59663
41 *1:0 *1:1 0.0221525
*END

*D_NET *2 0.119721

*CONN
*I *895:PAD B *C 80.71 334 *L 0 *D PADDI
*I *895:Y O *C 239.637 336.087 *L 0 *D PADDI
*I *867:CK I *C 355.7 502.455 *L 0.00021 *D DFFRX1
*I *655:CK I *C 355.3 500.745 *L 0.00021 *D DFFRHQX1
*I *463:CK I *C 356.9 394.725 *L 0.00021 *D DFFRHQX1
*I *645:CK I *C 355.3 505.875 *L 0.00021 *D DFFRHQX1
*I *503:CK I *C 350.7 505.875 *L 0.00021 *D DFFRHQX1
*I *611:CK I *C 356.9 511.005 *L 0.00021 *D DFFRHQX1
*I *491:CK I *C 350.3 507.585 *L 0.00021 *D DFFRHQX1
*I *868:CK I *C 357.3 509.295 *L 0.00021 *D DFFRX1
*I *520:CK I *C 349.5 504.165 *L 0.00021 *D DFFRHQX1
*I *493:CK I *C 348.9 509.295 *L 0.00021 *D DFFRHQX1
*I *481:CK I *C 344.7 505.875 *L 0.00021 *D DFFRHQX1
*I *489:CK I *C 343.7 509.295 *L 0.00021 *D DFFRHQX1
*I *482:CK I *C 342.3 511.005 *L 0.00021 *D DFFRHQX1
*I *478:CK I *C 338.3 507.585 *L 0.00021 *D DFFRHQX1
*I *473:CK I *C 340.5 505.875 *L 0.00021 *D DFFRHQX1
*I *472:CK I *C 342.5 507.585 *L 0.00021 *D DFFRHQX1
*I *479:CK I *C 339.5 509.295 *L 0.00021 *D DFFRHQX1
*I *475:CK I *C 341.5 502.455 *L 0.00021 *D DFFRX1
*I *568:CK I *C 373.705 562.16 *L 0.00021 *D SDFFQX1
*I *581:CK I *C 355.505 571 *L 0.00021 *D SDFFQX1
*I *586:CK I *C 355.105 572.42 *L 0.00021 *D SDFFQX1
*I *575:CK I *C 360.705 571 *L 0.00021 *D SDFFQX1
*I *558:CK I *C 361.905 572.42 *L 0.00021 *D SDFFQX1
*I *496:CK I *C 353.505 574.42 *L 0.00021 *D SDFFQX1
*I *529:CK I *C 356.505 577.84 *L 0.00021 *D SDFFQX1
*I *578:CK I *C 361.505 577.84 *L 0.00021 *D SDFFQX1
*I *591:CK I *C 353.705 575.84 *L 0.00021 *D SDFFQX1
*I *597:CK I *C 352.705 579.26 *L 0.00021 *D SDFFQX1
*I *497:CK I *C 351.505 577.84 *L 0.00021 *D SDFFQX1
*I *537:CK I *C 352.305 581.26 *L 0.00021 *D SDFFQX1
*I *627:CK I *C 353.105 584.68 *L 0.00021 *D SDFFQX1
*I *510:CK I *C 356.705 582.68 *L 0.00021 *D SDFFQX1
*I *570:CK I *C 352.905 588.1 *L 0.00021 *D SDFFQX1
*I *587:CK I *C 352.905 586.1 *L 0.00021 *D SDFFQX1
*I *598:CK I *C 352.105 592.94 *L 0.00021 *D SDFFQX1
*I *538:CK I *C 352.105 591.52 *L 0.00021 *D SDFFQX1
*I *498:CK I *C 352.305 594.94 *L 0.00021 *D SDFFQX1
*I *552:CK I *C 357.905 586.1 *L 0.00021 *D SDFFQX1
*I *567:CK I *C 357.905 584.68 *L 0.00021 *D SDFFQX1
*I *494:CK I *C 352.705 596.36 *L 0.00021 *D SDFFQX1
*I *592:CK I *C 353.505 598.36 *L 0.00021 *D SDFFQX1
*I *544:CK I *C 361.905 582.68 *L 0.00021 *D SDFFQX1
*I *616:CK I *C 362.705 584.68 *L 0.00021 *D SDFFQX1
*I *559:CK I *C 362.905 586.1 *L 0.00021 *D SDFFQX1
*I *545:CK I *C 361.305 591.52 *L 0.00021 *D SDFFQX1
*I *576:CK I *C 361.505 589.52 *L 0.00021 *D SDFFQX1
*I *548:CK I *C 369.705 584.68 *L 0.00021 *D SDFFQX1
*I *615:CK I *C 369.905 582.68 *L 0.00021 *D SDFFQX1
*I *629:CK I *C 369.905 581.26 *L 0.00021 *D SDFFQX1
*I *539:CK I *C 369.105 589.52 *L 0.00021 *D SDFFQX1
*I *608:CK I *C 372.305 586.1 *L 0.00021 *D SDFFQX1
*I *566:CK I *C 367.905 588.1 *L 0.00021 *D SDFFQX1
*I *554:CK I *C 369.905 577.84 *L 0.00021 *D SDFFQX1
*I *508:CK I *C 370.505 579.26 *L 0.00021 *D SDFFQX1
*I *546:CK I *C 369.305 591.52 *L 0.00021 *D SDFFQX1
*I *588:CK I *C 369.505 575.84 *L 0.00021 *D SDFFQX1
*I *523:CK I *C 374.305 589.52 *L 0.00021 *D SDFFQX1
*I *518:CK I *C 376.705 581.26 *L 0.00021 *D SDFFQX1
*I *527:CK I *C 377.105 584.68 *L 0.00021 *D SDFFQX1
*I *561:CK I *C 370.105 574.42 *L 0.00021 *D SDFFQX1
*I *536:CK I *C 377.505 586.1 *L 0.00021 *D SDFFQX1
*I *633:CK I *C 369.105 596.36 *L 0.00021 *D SDFFQX1
*I *573:CK I *C 369.905 572.42 *L 0.00021 *D SDFFQX1
*I *618:CK I *C 368.305 594.94 *L 0.00021 *D SDFFQX1
*I *557:CK I *C 369.705 571 *L 0.00021 *D SDFFQX1
*I *513:CK I *C 375.505 574.42 *L 0.00021 *D SDFFQX1
*I *506:CK I *C 369.705 599.78 *L 0.00021 *D SDFFQX1
*I *594:CK I *C 377.305 575.84 *L 0.00021 *D SDFFQX1
*I *525:CK I *C 387.505 574.42 *L 0.00021 *D SDFFQX1
*I *600:CK I *C 382.305 574.42 *L 0.00021 *D SDFFQX1
*I *607:CK I *C 387.505 572.42 *L 0.00021 *D SDFFQX1
*I *522:CK I *C 370.705 565.58 *L 0.00021 *D SDFFQX1
*I *501:CK I *C 382.105 577.84 *L 0.00021 *D SDFFQX1
*I *564:CK I *C 376.905 577.84 *L 0.00021 *D SDFFQX1
*I *563:CK I *C 370.105 567.58 *L 0.00021 *D SDFFQX1
*I *541:CK I *C 382.905 572.42 *L 0.00021 *D SDFFQX1
*I *609:CK I *C 382.105 569 *L 0.00021 *D SDFFQX1
*I *505:CK I *C 362.705 599.78 *L 0.00021 *D SDFFQX1
*I *619:CK I *C 362.505 596.36 *L 0.00021 *D SDFFQX1
*I *504:CK I *C 374.105 598.36 *L 0.00021 *D SDFFQX1
*I *589:CK I *C 370.905 564.16 *L 0.00021 *D SDFFQX1
*I *626:CK I *C 358.505 598.36 *L 0.00021 *D SDFFQX1
*I *603:CK I *C 387.105 571 *L 0.00021 *D SDFFQX1
*I *556:CK I *C 382.305 567.58 *L 0.00021 *D SDFFQX1
*I *530:CK I *C 357.705 599.78 *L 0.00021 *D SDFFQX1
*I *579:CK I *C 357.705 596.36 *L 0.00021 *D SDFFQX1
*I *531:CK I *C 374.905 599.78 *L 0.00021 *D SDFFQX1
*I *562:CK I *C 382.705 579.26 *L 0.00021 *D SDFFQX1
*I *593:CK I *C 375.705 596.36 *L 0.00021 *D SDFFQX1
*I *621:CK I *C 371.305 560.74 *L 0.00021 *D SDFFQX1
*I *524:CK I *C 387.105 569 *L 0.00021 *D SDFFQX1
*I *565:CK I *C 377.105 569 *L 0.00021 *D SDFFQX1
*I *514:CK I *C 396.705 572.42 *L 0.00021 *D SDFFQX1
*I *534:CK I *C 392.505 574.42 *L 0.00021 *D SDFFQX1
*I *533:CK I *C 387.705 579.26 *L 0.00021 *D SDFFQX1
*I *516:CK I *C 377.105 567.58 *L 0.00021 *D SDFFQX1
*I *595:CK I *C 401.505 572.42 *L 0.00021 *D SDFFQX1
*I *528:CK I *C 392.105 572.42 *L 0.00021 *D SDFFQX1
*I *555:CK I *C 388.705 577.84 *L 0.00021 *D SDFFQX1
*I *495:CK I *C 386.105 565.58 *L 0.00021 *D SDFFQX1
*I *519:CK I *C 377.905 594.94 *L 0.00021 *D SDFFQX1
*I *583:CK I *C 393.105 581.26 *L 0.00021 *D SDFFQX1
*I *632:CK I *C 382.705 596.36 *L 0.00021 *D SDFFQX1
*I *582:CK I *C 377.105 565.58 *L 0.00021 *D SDFFQX1
*I *509:CK I *C 382.905 599.78 *L 0.00021 *D SDFFQX1
*I *599:CK I *C 377.705 592.94 *L 0.00021 *D SDFFQX1
*I *492:CK I *C 400.505 574.42 *L 0.00021 *D SDFFQX1
*I *511:CK I *C 377.105 564.16 *L 0.00021 *D SDFFQX1
*I *499:CK I *C 377.905 591.52 *L 0.00021 *D SDFFQX1
*I *542:CK I *C 400.505 575.84 *L 0.00021 *D SDFFQX1
*I *572:CK I *C 400.505 577.84 *L 0.00021 *D SDFFQX1
*I *631:CK I *C 383.705 598.36 *L 0.00021 *D SDFFQX1
*I *628:CK I *C 376.505 560.74 *L 0.00021 *D SDFFQX1
*I *630:CK I *C 384.905 594.94 *L 0.00021 *D SDFFQX1
*I *622:CK I *C 387.505 596.36 *L 0.00021 *D SDFFQX1
*I *601:CK I *C 400.705 579.26 *L 0.00021 *D SDFFQX1
*I *507:CK I *C 388.105 599.78 *L 0.00021 *D SDFFQX1
*I *571:CK I *C 400.105 581.26 *L 0.00021 *D SDFFQX1
*I *517:CK I *C 388.705 598.36 *L 0.00021 *D SDFFQX1
*I *620:CK I *C 387.905 589.52 *L 0.00021 *D SDFFQX1
*I *547:CK I *C 386.705 591.52 *L 0.00021 *D SDFFQX1
*I *526:CK I *C 390.305 594.94 *L 0.00021 *D SDFFQX1
*I *577:CK I *C 388.305 588.1 *L 0.00021 *D SDFFQX1
*I *580:CK I *C 392.505 596.36 *L 0.00021 *D SDFFQX1
*I *560:CK I *C 387.905 586.1 *L 0.00021 *D SDFFQX1
*I *515:CK I *C 397.305 596.36 *L 0.00021 *D SDFFQX1
*I *602:CK I *C 401.505 592.94 *L 0.00021 *D SDFFQX1
*I *532:CK I *C 393.105 599.78 *L 0.00021 *D SDFFQX1
*I *502:CK I *C 401.505 591.52 *L 0.00021 *D SDFFQX1
*I *535:CK I *C 393.505 598.36 *L 0.00021 *D SDFFQX1
*I *550:CK I *C 384.705 584.68 *L 0.00021 *D SDFFQX1
*I *610:CK I *C 402.105 596.36 *L 0.00021 *D SDFFQX1
*I *512:CK I *C 398.305 599.78 *L 0.00021 *D SDFFQX1
*I *574:CK I *C 388.705 582.68 *L 0.00021 *D SDFFQX1
*I *521:CK I *C 383.905 582.68 *L 0.00021 *D SDFFQX1
*I *604:CK I *C 402.505 588.1 *L 0.00021 *D SDFFQX1
*I *606:CK I *C 398.705 598.36 *L 0.00021 *D SDFFQX1
*I *549:CK I *C 383.305 588.1 *L 0.00021 *D SDFFQX1
*I *540:CK I *C 397.505 588.1 *L 0.00021 *D SDFFQX1
*I *500:CK I *C 399.905 589.52 *L 0.00021 *D SDFFQX1
*I *543:CK I *C 399.905 584.68 *L 0.00021 *D SDFFQX1
*I *569:CK I *C 400.705 586.1 *L 0.00021 *D SDFFQX1
*I *623:CK I *C 382.905 589.52 *L 0.00021 *D SDFFQX1
*I *553:CK I *C 392.905 586.1 *L 0.00021 *D SDFFQX1
*I *605:CK I *C 393.505 584.68 *L 0.00021 *D SDFFQX1
*I *590:CK I *C 393.505 582.68 *L 0.00021 *D SDFFQX1

*CAP
1 *2:2 2.89245e-05
2 *2:3 2.41037e-05
3 *2:4 3.80839e-05
4 *2:5 0.00242694
5 *2:6 0.00792383
6 *895:PAD 0.00240283
7 *2:8 0.00792524
8 *2:9 0.000444109
9 *2:10 0.000433548
10 *2:11 0.00120663
11 *2:12 0.00120663
12 *2:16 0.00024456
13 *2:18 0.00024456
14 *2:19 0.000147694
15 *2:20 0.000147694
16 *2:21 0.00486916
17 *2:22 0.00070033
18 *2:23 0.00486916
19 *895:Y 0.00070033
20 *2:25 0.00141897
21 *2:26 0.00141897
22 *2:27 7.22109e-05
23 *2:28 8.2011e-05
24 *2:29 0.000216117
25 *2:30 0.000206317
26 *2:31 0.00134975
27 *2:32 0.00630708
28 *2:33 0.00495734
29 *2:34 2.06599e-05
30 *2:35 0.000205869
31 *2:36 3.04734e-05
32 *2:37 0.000205869
33 *2:38 7.17932e-05
34 *2:39 0.000118748
35 *2:40 7.17932e-05
36 *2:41 0.000208851
37 *2:42 3.04734e-05
38 *2:43 0.000227601
39 *2:44 4.06245e-05
40 *2:45 2.06599e-05
41 *2:46 0.000189581
42 *2:48 1.97914e-05
43 *2:49 6.83159e-05
44 *2:50 8.95822e-05
45 *2:51 4.06245e-05
46 *2:53 6.83159e-05
47 *2:54 0.000110415
48 *2:55 1.97914e-05
49 *2:57 0.000149998
50 *2:58 0.000295937
51 *2:60 0.000139582
52 *2:61 0.000295937
53 *2:62 9.0103e-05
54 *2:63 2.08331e-05
55 *2:64 9.94779e-05
56 *2:65 0.000120311
57 *2:67 1.97914e-05
58 *2:68 0.00017111
59 *2:69 0.000128644
60 *2:70 9.94779e-05
61 *2:72 0.000150277
62 *2:73 6.97908e-05
63 *2:74 3.95828e-05
64 *2:76 0.000120311
65 *2:77 0.000130955
66 *2:78 5.93742e-05
67 *2:79 9.00677e-05
68 *2:80 3.12496e-05
69 *2:81 0.000130955
70 *2:83 0.000360271
71 *2:85 0.00122333
72 *2:86 0.000334537
73 *2:87 4.94785e-05
74 *2:88 0.00122333
75 *2:89 0.000154402
76 *2:90 0.000128644
77 *2:91 4.94785e-05
78 *2:93 0.00018977
79 *2:94 4.94785e-05
80 *2:95 0.000128644
81 *2:98 1.83655e-05
82 *2:99 0.000217626
83 *2:100 0.000168227
84 *2:101 4.94785e-05
85 *2:103 2.80315e-05
86 *2:104 0.000117923
87 *2:105 0.000107354
88 *2:106 0.00013854
89 *2:107 4.01036e-05
90 *2:109 0.000386158
91 *2:110 8.78347e-05
92 *2:111 0.000157692
93 *2:113 2.03122e-05
94 *2:114 0.000376492
95 *2:115 4.87971e-05
96 *2:116 3.90377e-05
97 *2:117 0.000128413
98 *2:118 1.95188e-05
99 *2:119 9.8957e-06
100 *2:120 1.187e-05
101 *2:121 6.43219e-05
102 *2:123 0.00011814
103 *2:126 1.187e-05
104 *2:127 6.43219e-05
105 *2:128 0.000108381
106 *2:129 0.000853733
107 *2:131 8.78347e-05
108 *2:132 0.000853733
109 *2:136 0.000482729
110 *2:137 0.000328661
111 *2:138 0.0001661
112 *2:139 0.000328661
113 *2:140 0.000119936
114 *2:141 0.000328661
115 *2:142 0.000119936
116 *2:143 0.000290665
117 *2:144 6.33852e-05
118 *2:145 0.000278633
119 *2:146 6.33852e-05
120 *2:147 1.01273e-05
121 *2:148 2.06871e-05
122 *2:149 1.01273e-05
123 *2:150 3.15751e-05
124 *2:152 0.000259134
125 *2:153 0.000259134
126 *2:154 0.00010398
127 *2:155 0.000124123
128 *2:156 4.19187e-05
129 *2:157 5.07082e-05
130 *2:159 6.26058e-05
131 *2:160 6.27514e-05
132 *2:161 0.000113779
133 *2:162 0.000311071
134 *2:163 0.000237902
135 *2:165 0.000380681
136 *2:166 0.000175841
137 *2:167 0.000101416
138 *2:168 8.16538e-05
139 *2:170 8.87393e-05
140 *2:171 0.000101416
141 *2:172 0.000114729
142 *2:175 0.000416848
143 *2:176 3.10307e-05
144 *2:177 0.000114729
145 *2:178 0.000328109
146 *2:179 4.13743e-05
147 *2:180 8.27485e-05
148 *2:182 5.09906e-05
149 *2:183 4.13743e-05
150 *2:184 0.0001263
151 *2:186 5.09906e-05
152 *2:188 3.10307e-05
153 *2:189 0.000198705
154 *2:192 0.000166041
155 *2:193 0.000127389
156 *2:194 0.000103436
157 *2:195 7.5127e-05
158 *2:196 7.40382e-05
159 *2:198 2.06871e-05
160 *2:199 0.000165703
161 *2:200 7.29494e-05
162 *2:202 0.000256213
163 *2:203 6.20614e-05
164 *2:204 0.000193948
165 *2:205 0.000228925
166 *2:207 9.24073e-05
167 *2:209 0.000254361
168 *2:210 0.000123031
169 *2:211 3.75183e-05
170 *2:213 0.000296026
171 *2:214 1.02078e-05
172 *2:215 0.000113827
173 *2:218 0.000226183
174 *2:221 0.000113827
175 *2:222 0.000124105
176 *2:223 3.75183e-05
177 *2:224 9.18701e-05
178 *2:225 2.04156e-05
179 *2:226 2.54361e-05
180 *2:227 3.11606e-05
181 *2:230 0.000153117
182 *2:231 8.21995e-05
183 *2:232 0.000153117
184 *2:233 9.18701e-05
185 *2:234 0.000102714
186 *2:235 3.11606e-05
187 *2:237 3.94083e-05
188 *2:238 7.63084e-05
189 *2:239 4.13684e-05
190 *2:240 0.000163564
191 *2:241 7.14545e-05
192 *2:242 0.000114972
193 *2:243 0.000163564
194 *2:244 3.06234e-05
195 *2:245 4.08311e-05
196 *2:246 3.06234e-05
197 *2:247 0.000186426
198 *2:248 4.03776e-05
199 *2:252 0.000132701
200 *2:253 2.73747e-05
201 *2:255 3.77668e-05
202 *2:256 0.000216
203 *2:257 7.75214e-05
204 *2:258 0.000138478
205 *2:259 5.16809e-05
206 *2:260 1.25889e-05
207 *2:262 0.000102037
208 *2:264 0.000302135
209 *2:265 1.25889e-05
210 *2:266 0.00023919
211 *2:268 0.000191623
212 *2:269 0.000109499
213 *2:270 0.000204626
214 *2:271 0.000109499
215 *2:272 0.000259375
216 *2:273 0.000125889
217 *2:274 0.000259375
218 *2:275 0.000100712
219 *2:276 2.51779e-05
220 *2:277 4.03776e-05
221 *2:280 5.47493e-05
222 *2:281 4.03776e-05
223 *2:282 6.29447e-05
224 *2:283 0.000122502
225 *2:284 6.49325e-05
226 *2:285 0.000163656
227 *2:286 0.000122502
228 *2:287 0.000253767
229 *2:288 0.000214091
230 *2:290 4.03776e-05
231 *2:291 0.000227264
232 *2:292 0.000177435
233 *2:294 9.58113e-05
234 *2:295 0.000129865
235 *2:296 0.000127476
236 *2:298 8.14396e-05
237 *2:299 6.29447e-05
238 *2:300 8.81226e-05
239 *2:301 0.000116613
240 *2:302 0.000381051
241 *2:303 0.00018048
242 *2:304 0.000190938
243 *2:305 6.29447e-05
244 *2:306 0.000125889
245 *2:308 5.03558e-05
246 *2:309 0.000432765
247 *2:310 5.30033e-05
248 *2:311 0.000114729
249 *2:312 0.000190938
250 *2:314 0.000139141
251 *2:315 0.000369558
252 *2:317 0.000147112
253 *2:318 1.27476e-05
254 *2:319 2.61662e-05
255 *2:321 0.000108739
256 *2:322 5.10184e-05
257 *2:323 2.58405e-05
258 *2:324 0.000369558
259 *2:325 9.53981e-05
260 *2:327 0.000128147
261 *2:328 9.57356e-05
262 *2:329 0.000139141
263 *2:330 1.25889e-05